/*--------------------------------*- C++ -*----------------------------------*\
| =========                 |                                                 |
| \\      /  F ield         | OpenFOAM: The Open Source CFD Toolbox           |
|   \\  /    O peration     | Web:      https://www.OpenFOAM.org              |
|  \\    /   A nd           | Version:  8                                     |
|    \\/     M anipulation  |                                                 |
\*---------------------------------------------------------------------------*/
FoamFile
{
    version     2.0;
    format      ascii;
    class       dictionary;
    object      blockMeshDict;
}
// * * * * * * * * * * * * * * * * * * * * * * * * * * * * * * * * * * * * * //

convertToMeters 1;

vertices
(
(1.750000 -0.652958 0)
(1.683803 -0.645951 0)
(1.750000 -0.750000 0)
(1.750000 -0.560239 0)
(1.669484 -0.552958 0)
(1.602537 -0.628686 0)
(1.654121 -0.750000 0)
(1.750000 -0.471649 0)
(1.597413 -0.554406 0)
(1.534985 -0.513143 0)
(1.662080 -0.448571 0)
(1.543013 -0.621898 0)
(1.591260 -0.685501 0)
(1.562245 -0.750000 0)
(1.750000 -0.385878 0)
(1.569756 -0.472714 0)
(1.546967 -0.559176 0)
(1.500000 -0.500000 0)
(1.617763 -0.372915 0)
(1.703731 -0.383434 0)
(1.482940 -0.615502 0)
(1.546729 -0.696659 0)
(1.474206 -0.750000 0)
(1.750000 -0.300181 0)
(1.587757 -0.334688 0)
(1.560955 -0.394366 0)
(1.500000 -0.447368 0)
(1.490291 -0.557893 0)
(1.447368 -0.500000 0)
(1.670530 -0.316419 0)
(1.424595 -0.608808 0)
(1.475574 -0.679106 0)
(1.389272 -0.750000 0)
(1.750000 -0.214446 0)
(1.605428 -0.291642 0)
(1.552650 -0.338890 0)
(1.500000 -0.394737 0)
(1.448764 -0.447837 0)
(1.394737 -0.500000 0)
(1.439967 -0.552708 0)
(1.391185 -0.588084 0)
(1.677517 -0.224536 0)
(1.391696 -0.663683 0)
(1.304656 -0.750000 0)
(1.750000 -0.128674 0)
(1.612165 -0.228271 0)
(1.552692 -0.287298 0)
(1.500000 -0.342105 0)
(1.449796 -0.396029 0)
(1.397865 -0.447926 0)
(1.342105 -0.500000 0)
(1.391793 -0.550421 0)
(1.355604 -0.606996 0)
(1.675394 -0.144323 0)
(1.305429 -0.675816 0)
(1.220005 -0.750000 0)
(1.750000 -0.042891 0)
(1.750000 0.471649 0)
(1.610153 -0.161809 0)
(1.554443 -0.231815 0)
(1.500000 -0.289474 0)
(1.450089 -0.344912 0)
(1.400394 -0.396691 0)
(1.347548 -0.447268 0)
(1.289474 -0.500000 0)
(1.340440 -0.560427 0)
(1.310354 -0.625293 0)
(1.221020 -0.538239 0)
(1.660579 -0.058385 0)
(1.583161 -0.068892 0)
(1.232603 -0.671292 0)
(1.135318 -0.750000 0)
(1.750000 0.560239 0)
(1.750000 0.042891 0)
(1.680935 0.083397 0)
(1.750000 0.385878 0)
(1.656096 0.458878 0)
(1.568682 0.488828 0)
(1.684255 0.027359 0)
(1.606791 -0.099882 0)
(1.553408 -0.174887 0)
(1.500000 -0.236842 0)
(1.449194 -0.294265 0)
(1.401550 -0.347303 0)
(1.352502 -0.395866 0)
(1.297657 -0.445480 0)
(1.236842 -0.500000 0)
(1.256899 -0.583767 0)
(1.175150 -0.540806 0)
(1.599941 -0.030571 0)
(1.546723 -0.073387 0)
(1.146740 -0.667657 0)
(1.007487 -0.626691 0)
(1.050609 -0.750000 0)
(1.628617 0.547310 0)
(1.750000 0.652958 0)
(1.750000 0.128674 0)
(1.623168 0.104172 0)
(1.750000 0.300181 0)
(1.665000 0.378773 0)
(1.582346 0.447081 0)
(1.500000 0.500000 0)
(1.613087 0.028922 0)
(1.549519 -0.121496 0)
(1.500000 -0.184211 0)
(1.447095 -0.243380 0)
(1.399911 -0.299514 0)
(1.356337 -0.348513 0)
(1.306287 -0.392705 0)
(1.247423 -0.442407 0)
(1.184211 -0.500000 0)
(1.160380 -0.605885 0)
(1.130112 -0.530253 0)
(1.010301 -0.599488 0)
(1.550135 -0.024769 0)
(1.500000 -0.078947 0)
(1.051120 -0.662142 0)
(0.967775 -0.640867 0)
(0.965900 -0.750000 0)
(1.532563 0.569609 0)
(1.646406 0.652820 0)
(1.750000 0.750000 0)
(1.750000 0.214446 0)
(1.664191 0.170776 0)
(1.592017 0.142620 0)
(1.555436 0.084592 0)
(1.672251 0.301007 0)
(1.575994 0.369456 0)
(1.500000 0.447368 0)
(1.447368 0.500000 0)
(1.554907 0.029152 0)
(1.500000 -0.131579 0)
(1.444479 -0.191448 0)
(1.394923 -0.251435 0)
(1.356150 -0.307501 0)
(1.316761 -0.347054 0)
(1.259619 -0.385970 0)
(1.195934 -0.438619 0)
(1.131579 -0.500000 0)
(1.079410 -0.576292 0)
(0.967414 -0.602204 0)
(0.996867 -0.570985 0)
(1.500000 -0.026316 0)
(1.440833 -0.084479 0)
(0.914511 -0.635598 0)
(0.970785 -0.694930 0)
(0.820042 -0.575227 0)
(0.881191 -0.750000 0)
(1.458365 0.569016 0)
(1.398152 0.607256 0)
(1.549445 0.655286 0)
(1.654121 0.750000 0)
(1.411542 0.560781 0)
(1.673421 0.227370 0)
(1.605201 0.177478 0)
(1.550886 0.134939 0)
(1.500000 0.078947 0)
(1.602439 0.297718 0)
(1.539459 0.332413 0)
(1.500000 0.394737 0)
(1.447291 0.448078 0)
(1.394737 0.500000 0)
(1.500000 0.026316 0)
(1.442259 -0.138302 0)
(0.934451 -0.601424 0)
(1.388568 -0.200429 0)
(1.345023 -0.264190 0)
(1.325765 -0.315389 0)
(1.276894 -0.334101 0)
(1.210003 -0.377803 0)
(1.142902 -0.435177 0)
(1.078947 -0.500000 0)
(1.019081 -0.535533 0)
(0.965987 -0.572477 0)
(1.440048 -0.030479 0)
(1.381145 -0.090429 0)
(0.820629 -0.545057 0)
(0.865319 -0.607334 0)
(0.895323 -0.682213 0)
(0.710124 -0.552744 0)
(0.777349 -0.598545 0)
(0.796482 -0.750000 0)
(1.356916 0.619261 0)
(1.449183 0.652053 0)
(1.562245 0.750000 0)
(1.347236 0.557887 0)
(1.607345 0.234798 0)
(1.550598 0.184074 0)
(1.500000 0.131579 0)
(1.439615 0.077156 0)
(1.547687 0.290778 0)
(1.500000 0.342105 0)
(1.446756 0.396250 0)
(1.395053 0.448623 0)
(1.342105 0.500000 0)
(1.439704 0.023323 0)
(1.383728 -0.145976 0)
(0.919005 -0.573351 0)
(1.331414 -0.215844 0)
(1.304062 -0.291401 0)
(1.229385 -0.316195 0)
(1.155608 -0.369512 0)
(1.088650 -0.432729 0)
(1.026316 -0.500000 0)
(0.967944 -0.532405 0)
(1.379839 -0.034884 0)
(1.320531 -0.096917 0)
(0.766620 -0.548933 0)
(0.869210 -0.544706 0)
(0.815789 -0.500000 0)
(0.710526 -0.500000 0)
(0.650992 -0.553049 0)
(0.809986 -0.661712 0)
(0.712165 -0.609295 0)
(0.711773 -0.750000 0)
(1.297491 0.618638 0)
(1.372996 0.676053 0)
(1.474206 0.750000 0)
(1.293206 0.558838 0)
(1.551310 0.236809 0)
(1.500000 0.184211 0)
(1.439818 0.131076 0)
(1.379007 0.075224 0)
(1.500000 0.289474 0)
(1.445470 0.344393 0)
(1.394392 0.397781 0)
(1.343687 0.448508 0)
(1.289474 0.500000 0)
(1.379222 0.020237 0)
(1.323405 -0.156346 0)
(0.920373 -0.541242 0)
(1.262748 -0.244926 0)
(1.171319 -0.302519 0)
(1.099401 -0.364727 0)
(1.033533 -0.431405 0)
(0.973684 -0.500000 0)
(1.319209 -0.039474 0)
(1.259404 -0.103086 0)
(0.763158 -0.500000 0)
(0.868421 -0.500000 0)
(0.815734 -0.441302 0)
(0.714981 -0.443123 0)
(0.657895 -0.500000 0)
(0.593363 -0.549494 0)
(0.642213 -0.610136 0)
(0.715130 -0.674935 0)
(0.522246 -0.586851 0)
(0.627064 -0.750000 0)
(1.238140 0.618947 0)
(1.301606 0.682006 0)
(1.389272 0.750000 0)
(1.238339 0.559389 0)
(1.500000 0.236842 0)
(1.440472 0.185064 0)
(1.379241 0.130466 0)
(1.318197 0.072755 0)
(1.443591 0.292028 0)
(1.391701 0.347317 0)
(1.344364 0.398835 0)
(1.292900 0.446785 0)
(1.236842 0.500000 0)
(1.318578 0.016816 0)
(1.260671 -0.167018 0)
(0.921053 -0.500000 0)
(1.187976 -0.234191 0)
(1.111816 -0.295481 0)
(1.041468 -0.361685 0)
(0.977854 -0.431605 0)
(1.258282 -0.044384 0)
(1.200750 -0.110113 0)
(0.765308 -0.443359 0)
(0.867535 -0.437221 0)
(0.816936 -0.384750 0)
(0.719492 -0.387659 0)
(0.664653 -0.441265 0)
(0.605263 -0.500000 0)
(0.539820 -0.543560 0)
(0.576359 -0.601796 0)
(0.632398 -0.675753 0)
(0.476153 -0.573559 0)
(0.505730 -0.615657 0)
(0.542355 -0.750000 0)
(1.183927 0.615748 0)
(1.232185 0.681483 0)
(1.304656 0.750000 0)
(1.184367 0.560575 0)
(1.146176 0.612690 0)
(1.441755 0.238856 0)
(1.380300 0.186138 0)
(1.317954 0.129260 0)
(1.257742 0.068935 0)
(1.387125 0.295637 0)
(1.340146 0.347820 0)
(1.291523 0.395607 0)
(1.241302 0.443303 0)
(1.184211 0.500000 0)
(0.445902 -0.555977 0)
(1.258032 0.012648 0)
(1.197794 -0.167425 0)
(0.922104 -0.433535 0)
(1.125804 -0.226131 0)
(1.051146 -0.290366 0)
(0.982222 -0.361493 0)
(1.196685 -0.052791 0)
(1.164768 -0.115010 0)
(0.767694 -0.389113 0)
(0.863166 -0.373633 0)
(0.808018 -0.343286 0)
(0.724135 -0.333661 0)
(0.670580 -0.383863 0)
(0.491102 -0.537676 0)
(0.614412 -0.438808 0)
(0.552632 -0.500000 0)
(0.536584 -0.668098 0)
(0.446477 -0.615344 0)
(0.457645 -0.750000 0)
(1.182582 0.677340 0)
(1.220005 0.750000 0)
(1.125308 0.569729 0)
(1.126485 0.648135 0)
(1.062748 0.593206 0)
(1.382884 0.241649 0)
(1.318689 0.187053 0)
(1.256099 0.126100 0)
(1.200174 0.063094 0)
(1.330499 0.303564 0)
(1.303299 0.359164 0)
(1.248358 0.387161 0)
(1.071246 0.554186 0)
(1.187975 0.439318 0)
(1.131579 0.500000 0)
(0.414412 -0.573115 0)
(0.448721 -0.530392 0)
(1.197915 0.007506 0)
(1.141497 -0.162420 0)
(0.921753 -0.364909 0)
(1.063861 -0.217358 0)
(0.987844 -0.288090 0)
(1.129309 -0.063106 0)
(0.773138 -0.331899 0)
(0.848070 -0.305039 0)
(0.728756 -0.279192 0)
(0.674217 -0.329726 0)
(0.625000 -0.375000 0)
(0.500000 -0.500000 0)
(0.563421 -0.437756 0)
(0.453292 -0.680627 0)
(0.376384 -0.634570 0)
(0.372936 -0.750000 0)
(0.314791 -0.592731 0)
(1.135318 0.750000 0)
(1.089720 0.618336 0)
(1.105412 0.684275 0)
(1.024719 0.603892 0)
(1.155565 0.058229 0)
(1.322377 0.246498 0)
(1.254689 0.186621 0)
(1.194775 0.118478 0)
(1.267510 0.323966 0)
(1.192666 0.379075 0)
(1.022200 0.551982 0)
(1.078947 0.500000 0)
(1.133305 0.435074 0)
(0.365882 -0.583395 0)
(0.401948 -0.537081 0)
(0.447368 -0.500000 0)
(1.131817 0.014230 0)
(1.083555 -0.146100 0)
(0.920975 -0.291020 0)
(0.996703 -0.209951 0)
(1.037204 -0.047968 0)
(0.782420 -0.283758 0)
(0.850930 -0.217075 0)
(0.731541 -0.223056 0)
(0.676453 -0.276950 0)
(0.625000 -0.325000 0)
(0.574479 -0.375000 0)
(0.511954 -0.437550 0)
(0.301118 -0.546854 0)
(0.375144 -0.682853 0)
(0.329043 -0.628352 0)
(0.288227 -0.750000 0)
(0.260356 -0.605801 0)
(1.050609 0.750000 0)
(1.046294 0.673874 0)
(0.966255 0.608338 0)
(1.130665 0.101471 0)
(1.257577 0.251496 0)
(1.187325 0.182449 0)
(1.193581 0.305484 0)
(1.131426 0.370189 0)
(0.969085 0.551838 0)
(1.026316 0.500000 0)
(1.076855 0.431457 0)
(0.353185 -0.541749 0)
(0.394737 -0.500000 0)
(0.460398 -0.437510 0)
(1.061723 0.049419 0)
(1.012884 -0.129536 0)
(0.923020 -0.209127 0)
(0.971290 -0.038378 0)
(0.788556 -0.221742 0)
(0.853496 -0.139249 0)
(0.730746 -0.166506 0)
(0.677627 -0.224103 0)
(0.625000 -0.275000 0)
(0.575427 -0.326147 0)
(0.523959 -0.375000 0)
(0.289474 -0.500000 0)
(0.246734 -0.552004 0)
(0.295949 -0.672991 0)
(0.203518 -0.750000 0)
(0.195270 -0.614261 0)
(0.965900 0.750000 0)
(0.966725 0.674781 0)
(0.901378 0.601219 0)
(0.874245 0.538414 0)
(0.815789 0.500000 0)
(1.116022 0.167926 0)
(1.185014 0.243739 0)
(1.144580 0.321050 0)
(1.067359 0.357221 0)
(0.913457 0.552389 0)
(0.973684 0.500000 0)
(1.017990 0.430824 0)
(1.050738 0.143250 0)
(0.342105 -0.500000 0)
(0.408826 -0.437502 0)
(0.473438 -0.375000 0)
(0.940406 0.029654 0)
(0.923869 -0.108997 0)
(0.785486 -0.159062 0)
(0.820657 -0.094402 0)
(0.726900 -0.111446 0)
(0.677442 -0.171379 0)
(0.625000 -0.225000 0)
(0.575630 -0.277820 0)
(0.526474 -0.326650 0)
(0.305677 -0.437500 0)
(0.236842 -0.500000 0)
(0.188831 -0.555650 0)
(0.201939 -0.678932 0)
(0.118809 -0.750000 0)
(0.125938 -0.615915 0)
(0.881191 0.750000 0)
(0.868421 0.500000 0)
(0.889680 0.671101 0)
(0.833662 0.575504 0)
(0.800081 0.453807 0)
(0.763158 0.500000 0)
(0.713093 0.541998 0)
(1.093041 0.264096 0)
(1.010057 0.357956 0)
(0.921053 0.500000 0)
(0.958924 0.434013 0)
(1.034462 0.203090 0)
(0.969609 0.134444 0)
(0.357251 -0.437500 0)
(0.422917 -0.375000 0)
(0.478050 -0.325705 0)
(0.887451 0.083499 0)
(0.854604 -0.029454 0)
(0.779670 -0.096898 0)
(0.727087 -0.057667 0)
(0.675867 -0.119567 0)
(0.625000 -0.175000 0)
(0.574159 -0.229951 0)
(0.528129 -0.279947 0)
(0.321876 -0.375000 0)
(0.254109 -0.437500 0)
(0.184211 -0.500000 0)
(0.128982 -0.556433 0)
(-0.562245 -0.750000 0)
(-0.750000 -0.750000 0)
(-0.502095 -0.605129 0)
(-0.464929 -0.648535 0)
(-0.474206 -0.750000 0)
(0.122432 -0.680691 0)
(0.034100 -0.750000 0)
(0.057042 -0.611447 0)
(-0.135318 -0.750000 0)
(-0.386485 -0.612234 0)
(0.796482 0.750000 0)
(0.849576 0.447772 0)
(0.809168 0.659672 0)
(0.758610 0.565960 0)
(0.678729 0.568846 0)
(0.783973 0.411498 0)
(0.750815 0.456775 0)
(0.710526 0.500000 0)
(0.999461 0.281868 0)
(0.941886 0.365105 0)
(0.902187 0.440172 0)
(0.982636 0.217124 0)
(0.898764 0.142358 0)
(0.372396 -0.375000 0)
(0.428968 -0.323439 0)
(0.483582 -0.278999 0)
(0.817658 0.066944 0)
(0.771830 -0.033909 0)
(0.708449 -0.022087 0)
(0.673438 -0.069963 0)
(0.625000 -0.125000 0)
(0.571086 -0.181243 0)
(0.525843 -0.236557 0)
(0.327833 -0.320240 0)
(0.283699 -0.265666 0)
(0.244404 -0.226357 0)
(0.271355 -0.375000 0)
(0.202576 -0.437498 0)
(0.131579 -0.500000 0)
(0.069700 -0.554132 0)
(-0.654121 -0.750000 0)
(-0.567549 -0.685508 0)
(-0.750000 -0.652958 0)
(-0.750000 0.750000 0)
(-0.467378 -0.607120 0)
(-0.523778 -0.654068 0)
(-0.524291 -0.568331 0)
(-0.411177 -0.631356 0)
(-0.442193 -0.680489 0)
(-0.389272 -0.750000 0)
(0.042580 -0.676572 0)
(-0.050609 -0.750000 0)
(-0.009513 -0.605517 0)
(-0.220005 -0.750000 0)
(-0.136362 -0.680821 0)
(-0.358049 -0.625815 0)
(-0.388766 -0.583051 0)
(0.711773 0.750000 0)
(0.826614 0.397705 0)
(0.715348 0.637650 0)
(0.770838 0.381779 0)
(0.614678 0.574012 0)
(0.657895 0.500000 0)
(0.740488 0.415490 0)
(0.699960 0.457749 0)
(0.923501 0.291521 0)
(0.878155 0.378394 0)
(0.910294 0.215605 0)
(0.831386 0.147020 0)
(0.768931 0.102307 0)
(0.378519 -0.321460 0)
(0.332659 -0.265880 0)
(0.437219 -0.271873 0)
(0.489724 -0.244805 0)
(0.740334 0.021298 0)
(0.672874 -0.020274 0)
(0.625000 -0.075000 0)
(0.568193 -0.130564 0)
(0.516828 -0.190794 0)
(0.282615 -0.210790 0)
(0.013948 -0.549030 0)
(0.278054 -0.318630 0)
(0.239855 -0.262554 0)
(0.223337 -0.210430 0)
(0.220834 -0.375000 0)
(0.151175 -0.437492 0)
(0.078947 -0.500000 0)
(-0.641267 -0.648165 0)
(-0.750000 -0.560239 0)
(-0.654121 0.750000 0)
(-0.750000 0.652958 0)
(-0.427708 -0.588799 0)
(-0.482487 -0.553062 0)
(-0.571005 -0.597849 0)
(-0.543300 -0.513147 0)
(-0.381193 -0.672344 0)
(-0.304656 -0.750000 0)
(-0.049176 -0.661418 0)
(-0.045851 -0.578775 0)
(-0.211010 -0.681223 0)
(-0.143483 -0.632869 0)
(-0.328913 -0.625704 0)
(-0.349656 -0.584888 0)
(-0.391672 -0.543388 0)
(0.627064 0.750000 0)
(-0.562245 0.750000 0)
(0.793244 0.356498 0)
(0.624312 0.656611 0)
(0.735861 0.376576 0)
(0.549745 0.577464 0)
(0.605263 0.500000 0)
(0.647815 0.458074 0)
(0.690694 0.415910 0)
(0.837726 0.305188 0)
(0.836853 0.219093 0)
(0.769555 0.149811 0)
(0.728892 0.082187 0)
(0.384802 -0.267005 0)
(0.335868 -0.215165 0)
(0.456133 -0.212855 0)
(0.676684 0.026601 0)
(0.625000 -0.025000 0)
(0.566455 -0.078730 0)
(0.509963 -0.137347 0)
(0.304580 -0.163337 0)
(0.246096 -0.179329 0)
(0.193927 -0.186104 0)
(0.170119 -0.216407 0)
(-0.043286 -0.542604 0)
(0.026316 -0.500000 0)
(0.228463 -0.313749 0)
(0.201388 -0.246116 0)
(0.170456 -0.375000 0)
(0.100078 -0.437458 0)
(-0.667917 -0.549711 0)
(-0.750000 -0.471649 0)
(-0.638899 0.648651 0)
(-0.612936 0.555122 0)
(-0.750000 0.560239 0)
(-0.437671 -0.546160 0)
(-0.500000 -0.500000 0)
(-0.598927 -0.530936 0)
(-0.552807 -0.452019 0)
(-0.300364 -0.671096 0)
(-0.097420 -0.602834 0)
(-0.192393 -0.611042 0)
(-0.128215 -0.528054 0)
(-0.307004 -0.592930 0)
(-0.344888 -0.544032 0)
(-0.394737 -0.500000 0)
(0.542355 0.750000 0)
(-0.578993 0.597646 0)
(-0.558753 0.694118 0)
(-0.474206 0.750000 0)
(0.743728 0.334440 0)
(0.546320 0.660701 0)
(0.485424 0.574018 0)
(0.684941 0.373289 0)
(0.552632 0.500000 0)
(0.595423 0.458224 0)
(0.637573 0.416301 0)
(0.757190 0.280167 0)
(0.765147 0.213887 0)
(0.714593 0.142589 0)
(0.659571 0.168395 0)
(0.675047 0.079425 0)
(0.388575 -0.211936 0)
(0.337326 -0.179152 0)
(0.447920 -0.144199 0)
(0.625000 0.025000 0)
(0.565504 -0.026678 0)
(0.507223 -0.082524 0)
(0.324409 -0.122741 0)
(0.266202 -0.143525 0)
(0.214411 -0.156865 0)
(0.167081 -0.162114 0)
(0.145211 -0.184991 0)
(0.139892 -0.244844 0)
(-0.087713 -0.541087 0)
(-0.026316 -0.500000 0)
(0.049446 -0.437284 0)
(0.170872 -0.298818 0)
(0.120745 -0.375000 0)
(-0.677888 -0.465575 0)
(-0.750000 -0.385878 0)
(-0.665128 0.558953 0)
(-0.601274 0.513605 0)
(-0.750000 0.471649 0)
(-0.550318 0.540187 0)
(-0.447368 -0.500000 0)
(-0.500000 -0.447368 0)
(-0.611419 -0.458184 0)
(-0.554697 -0.388695 0)
(-0.256931 -0.607560 0)
(-0.169838 -0.559584 0)
(-0.131579 -0.500000 0)
(-0.106039 -0.457819 0)
(-0.295795 -0.547810 0)
(-0.342105 -0.500000 0)
(-0.389038 -0.452519 0)
(0.457645 0.750000 0)
(-0.474736 0.643382 0)
(-0.389272 0.750000 0)
(0.685871 0.326311 0)
(0.469209 0.656607 0)
(0.432872 0.569836 0)
(0.500000 0.500000 0)
(0.625000 0.375000 0)
(0.543210 0.458293 0)
(0.585194 0.416551 0)
(0.689645 0.272130 0)
(0.690333 0.203831 0)
(0.672641 0.131551 0)
(0.625000 0.175000 0)
(0.625000 0.075000 0)
(0.380148 -0.153093 0)
(0.447308 -0.085620 0)
(0.564874 0.025805 0)
(0.505979 -0.028783 0)
(0.337266 -0.077105 0)
(0.282383 -0.106911 0)
(0.143287 -0.139531 0)
(0.231959 -0.126456 0)
(0.185713 -0.137655 0)
(0.119664 -0.131053 0)
(0.124562 -0.156474 0)
(0.119322 -0.205298 0)
(0.102241 -0.263133 0)
(-0.078947 -0.500000 0)
(-0.000351 -0.436389 0)
(0.071954 -0.375000 0)
(0.114349 -0.315044 0)
(-0.681173 -0.383312 0)
(-0.750000 -0.300181 0)
(-0.579773 0.484652 0)
(-0.654853 0.472980 0)
(-0.750000 0.385878 0)
(-0.489244 0.553640 0)
(-0.544467 0.491746 0)
(-0.443396 -0.448104 0)
(-0.500000 -0.394737 0)
(-0.614643 -0.383177 0)
(-0.550648 -0.327808 0)
(-0.240786 -0.553709 0)
(-0.184211 -0.500000 0)
(-0.135977 -0.458833 0)
(-0.088915 -0.422243 0)
(-0.289474 -0.500000 0)
(-0.336501 -0.456037 0)
(-0.381466 -0.408257 0)
(-0.406475 -0.361119 0)
(0.032194 -0.052929 0)
(0.372936 0.750000 0)
(-0.409029 0.596801 0)
(-0.380354 0.676766 0)
(-0.304656 0.750000 0)
(0.625000 0.325000 0)
(0.382361 0.637623 0)
(0.391080 0.539802 0)
(0.447368 0.500000 0)
(0.491163 0.458319 0)
(0.574434 0.375000 0)
(0.533622 0.416627 0)
(0.625000 0.275000 0)
(0.625000 0.225000 0)
(0.625000 0.125000 0)
(0.575839 0.179816 0)
(0.565137 0.079487 0)
(0.389050 -0.085142 0)
(0.447447 -0.031069 0)
(0.504421 0.025133 0)
(0.343039 -0.032432 0)
(0.293767 -0.069119 0)
(0.246042 -0.094797 0)
(0.113928 -0.110118 0)
(0.135317 -0.115619 0)
(0.159783 -0.120289 0)
(0.201438 -0.111625 0)
(0.035348 -0.048940 0)
(0.036529 -0.053246 0)
(0.040436 -0.056047 0)
(0.034098 -0.044803 0)
(0.052513 -0.063858 0)
(0.045558 -0.059522 0)
(0.040159 -0.061317 0)
(0.035061 -0.058318 0)
(0.095729 -0.104486 0)
(0.099364 -0.122377 0)
(0.101180 -0.144133 0)
(0.102976 -0.171452 0)
(0.089665 -0.220385 0)
(0.062802 -0.271938 0)
(0.029465 -0.057415 0)
(-0.040491 -0.434894 0)
(0.023772 -0.375000 0)
(0.067631 -0.321039 0)
(-0.682519 -0.300175 0)
(-0.750000 -0.214446 0)
(-0.592815 0.445802 0)
(-0.665354 0.368165 0)
(-0.750000 0.300181 0)
(-0.380423 0.569212 0)
(-0.436021 0.548681 0)
(-0.500000 0.500000 0)
(-0.545700 0.443403 0)
(-0.436309 -0.389004 0)
(-0.500000 -0.342105 0)
(-0.542601 -0.275902 0)
(-0.615876 -0.292091 0)
(-0.236842 -0.500000 0)
(-0.182894 -0.458501 0)
(-0.131862 -0.417823 0)
(-0.072806 -0.375000 0)
(-0.284633 -0.457544 0)
(-0.330520 -0.414093 0)
(-0.375000 -0.375000 0)
(-0.411726 -0.325281 0)
(0.030844 -0.047760 0)
(0.027636 -0.051706 0)
(0.029086 -0.043265 0)
(0.026471 -0.039055 0)
(0.288227 0.750000 0)
(-0.359111 0.620642 0)
(-0.300779 0.687834 0)
(-0.220005 0.750000 0)
(0.574977 0.324142 0)
(0.291896 0.657707 0)
(0.340756 0.565700 0)
(0.394737 0.500000 0)
(0.439182 0.458328 0)
(0.482261 0.416653 0)
(0.523868 0.375000 0)
(0.576019 0.273909 0)
(0.577384 0.225580 0)
(0.568810 0.132513 0)
(0.538263 0.185316 0)
(0.502642 0.081983 0)
(0.392241 -0.032462 0)
(0.445281 0.021604 0)
(0.343198 0.010044 0)
(0.091963 -0.088939 0)
(0.299924 -0.030956 0)
(0.256130 -0.062095 0)
(0.213978 -0.084210 0)
(0.107719 -0.092532 0)
(0.126278 -0.095103 0)
(0.148408 -0.097505 0)
(0.174130 -0.098380 0)
(0.039134 -0.045692 0)
(0.040765 -0.050174 0)
(0.045711 -0.052953 0)
(0.050284 -0.056801 0)
(0.036835 -0.041677 0)
(0.032014 -0.039536 0)
(0.028877 -0.035784 0)
(0.059801 -0.062175 0)
(0.056530 -0.056031 0)
(0.067199 -0.064839 0)
(0.024204 -0.055726 0)
(0.060047 -0.071621 0)
(0.070127 -0.077452 0)
(0.079072 -0.086664 0)
(0.049598 -0.073326 0)
(0.042954 -0.067693 0)
(0.036784 -0.065003 0)
(0.031849 -0.063841 0)
(0.080377 -0.099450 0)
(0.079954 -0.115302 0)
(0.081836 -0.134486 0)
(0.080722 -0.157046 0)
(0.078995 -0.183738 0)
(0.057912 -0.229575 0)
(0.023371 -0.273710 0)
(0.025442 -0.061849 0)
(-0.024197 -0.375000 0)
(0.021533 -0.321501 0)
(-0.685268 -0.218116 0)
(-0.750000 -0.128674 0)
(-0.597183 0.387072 0)
(-0.622338 0.325761 0)
(-0.684855 0.289157 0)
(-0.750000 0.214446 0)
(-0.343228 0.578619 0)
(-0.387280 0.540647 0)
(-0.447368 0.500000 0)
(-0.500000 0.447368 0)
(-0.546819 0.390894 0)
(-0.452133 -0.333720 0)
(-0.500000 -0.289474 0)
(-0.575482 -0.262715 0)
(-0.538502 -0.226106 0)
(-0.625661 -0.219402 0)
(-0.233218 -0.458148 0)
(-0.179024 -0.416901 0)
(-0.122534 -0.375000 0)
(-0.078424 -0.330164 0)
(-0.279449 -0.415848 0)
(-0.324479 -0.375000 0)
(-0.375000 -0.323593 0)
(-0.414738 -0.276755 0)
(0.026381 -0.046453 0)
(0.023076 -0.050072 0)
(0.020242 -0.053647 0)
(0.024408 -0.041705 0)
(0.027003 -0.033337 0)
(0.025509 -0.035396 0)
(0.022723 -0.037680 0)
(0.203518 0.750000 0)
(-0.295097 0.632523 0)
(-0.224785 0.690442 0)
(-0.135318 0.750000 0)
(0.524381 0.322798 0)
(0.216485 0.664276 0)
(0.169342 0.611030 0)
(0.288759 0.575113 0)
(0.342105 0.500000 0)
(0.387227 0.458332 0)
(0.430970 0.416662 0)
(0.473302 0.375000 0)
(0.526260 0.271145 0)
(0.521019 0.219829 0)
(0.504527 0.149542 0)
(0.439078 0.076197 0)
(0.390649 0.015943 0)
(0.077612 -0.065086 0)
(0.084050 -0.075847 0)
(0.339759 0.050449 0)
(0.301392 0.006285 0)
(0.100344 -0.075123 0)
(0.262050 -0.028996 0)
(0.223009 -0.055864 0)
(0.185522 -0.074709 0)
(0.116833 -0.076421 0)
(0.136782 -0.078083 0)
(0.159333 -0.077673 0)
(0.040980 -0.040710 0)
(0.045673 -0.045702 0)
(0.051600 -0.049620 0)
(0.036119 -0.037254 0)
(0.032609 -0.034911 0)
(0.029357 -0.032189 0)
(0.026290 -0.030179 0)
(0.041472 -0.036444 0)
(0.063756 -0.054276 0)
(0.058787 -0.046678 0)
(0.071984 -0.055945 0)
(0.081145 -0.056077 0)
(0.019363 -0.059664 0)
(0.057205 -0.082262 0)
(0.067550 -0.091555 0)
(0.047968 -0.085141 0)
(0.040440 -0.079146 0)
(0.033833 -0.071794 0)
(0.027278 -0.068571 0)
(0.065035 -0.106417 0)
(0.065146 -0.124823 0)
(0.062498 -0.144779 0)
(0.058902 -0.167070 0)
(0.053568 -0.192693 0)
(0.025591 -0.233162 0)
(-0.014554 -0.267666 0)
(0.020167 -0.067606 0)
(-0.031895 -0.315113 0)
(-0.685038 -0.137639 0)
(-0.750000 -0.042891 0)
(-0.750000 0.128674 0)
(-0.591168 0.331387 0)
(-0.632425 0.278495 0)
(-0.687460 0.213169 0)
(-0.290483 0.585038 0)
(-0.340023 0.539993 0)
(-0.394737 0.500000 0)
(-0.445003 0.451573 0)
(-0.500000 0.394737 0)
(-0.545576 0.336987 0)
(-0.456270 -0.282754 0)
(-0.500000 -0.236842 0)
(-0.578253 -0.218959 0)
(-0.534577 -0.175172 0)
(-0.624897 -0.147829 0)
(-0.084640 -0.300005 0)
(-0.228737 -0.416484 0)
(-0.172917 -0.375000 0)
(-0.120640 -0.330447 0)
(-0.273959 -0.375000 0)
(-0.324369 -0.321591 0)
(-0.375000 -0.272186 0)
(-0.415759 -0.225996 0)
(0.014374 -0.058514 0)
(0.016209 -0.054156 0)
(0.021411 -0.044303 0)
(0.018189 -0.048279 0)
(0.020361 -0.039784 0)
(0.024429 -0.032484 0)
(0.021998 -0.034596 0)
(0.019759 -0.036416 0)
(0.024163 -0.029422 0)
(0.168084 0.662558 0)
(0.118809 0.750000 0)
(0.034100 0.750000 0)
(-0.229400 0.635512 0)
(-0.149017 0.687906 0)
(-0.050609 0.750000 0)
(-0.233591 0.587282 0)
(0.472484 0.321106 0)
(0.140842 0.594815 0)
(0.214972 0.580799 0)
(0.289474 0.500000 0)
(0.335283 0.458333 0)
(0.379703 0.416665 0)
(0.422736 0.375000 0)
(0.473540 0.266580 0)
(0.480308 0.210879 0)
(0.427574 0.136690 0)
(0.381796 0.063791 0)
(0.328991 0.077535 0)
(0.091674 -0.061613 0)
(0.299219 0.041700 0)
(0.264111 0.003811 0)
(0.108120 -0.060693 0)
(0.228440 -0.027046 0)
(0.193583 -0.050251 0)
(0.169064 -0.055970 0)
(0.125625 -0.061175 0)
(0.146191 -0.060238 0)
(0.046444 -0.038958 0)
(0.052037 -0.042598 0)
(0.036647 -0.033440 0)
(0.032379 -0.030613 0)
(0.028482 -0.027679 0)
(0.026352 -0.026498 0)
(0.025181 -0.026111 0)
(0.040984 -0.031720 0)
(0.046178 -0.033841 0)
(0.067288 -0.046930 0)
(0.057534 -0.039195 0)
(0.063601 -0.040919 0)
(0.076298 -0.045989 0)
(0.087203 -0.047617 0)
(0.025067 -0.021791 0)
(0.024599 -0.025869 0)
(0.014199 -0.063959 0)
(0.053227 -0.095846 0)
(0.040677 -0.091039 0)
(0.032465 -0.082451 0)
(0.025061 -0.075850 0)
(0.051092 -0.112299 0)
(0.047268 -0.130926 0)
(-0.045755 -0.253761 0)
(0.042221 -0.151993 0)
(0.035298 -0.173259 0)
(0.027103 -0.198155 0)
(-0.005843 -0.231394 0)
(0.017312 -0.076768 0)
(0.012397 -0.070128 0)
(-0.064972 -0.280600 0)
(-0.679469 -0.055587 0)
(-0.750000 0.042891 0)
(-0.681757 0.133499 0)
(-0.587431 0.277811 0)
(-0.631521 0.215092 0)
(-0.289020 0.541976 0)
(-0.342105 0.500000 0)
(-0.390588 0.454985 0)
(-0.442083 0.403895 0)
(-0.500000 0.342105 0)
(-0.543473 0.283179 0)
(-0.457410 -0.231334 0)
(-0.500000 -0.184211 0)
(-0.573857 -0.160513 0)
(-0.524017 -0.135146 0)
(-0.615850 -0.074889 0)
(-0.113112 -0.290289 0)
(-0.223438 -0.375000 0)
(-0.167141 -0.324854 0)
(-0.415697 -0.175011 0)
(-0.272341 -0.319412 0)
(-0.325556 -0.268601 0)
(-0.375000 -0.220781 0)
(0.010138 -0.060357 0)
(0.010501 -0.054535 0)
(0.013420 -0.049860 0)
(0.017819 -0.043055 0)
(0.014848 -0.045453 0)
(0.017305 -0.039048 0)
(0.017274 -0.036030 0)
(0.021612 -0.031972 0)
(0.019111 -0.034054 0)
(0.021973 -0.029450 0)
(0.021547 -0.029024 0)
(0.114166 0.626790 0)
(0.068984 0.660587 0)
(0.003677 0.676320 0)
(-0.163890 0.630769 0)
(-0.072341 0.682283 0)
(-0.178066 0.584389 0)
(-0.235763 0.542893 0)
(0.118986 0.574142 0)
(0.419081 0.320125 0)
(0.166214 0.551944 0)
(0.236842 0.500000 0)
(0.283350 0.458334 0)
(0.328448 0.416666 0)
(0.372170 0.375000 0)
(0.415911 0.262832 0)
(0.417054 0.200955 0)
(0.355174 0.115243 0)
(0.296494 0.082273 0)
(0.099858 -0.046385 0)
(0.262924 0.036041 0)
(0.230395 0.001845 0)
(0.115145 -0.046345 0)
(0.198394 -0.025263 0)
(0.174691 -0.033598 0)
(0.151949 -0.039717 0)
(0.132658 -0.044499 0)
(0.051994 -0.035009 0)
(0.056946 -0.033809 0)
(0.035988 -0.029258 0)
(0.040346 -0.028253 0)
(0.032291 -0.026271 0)
(0.028715 -0.023839 0)
(0.026390 -0.021875 0)
(0.049324 -0.030802 0)
(0.045272 -0.029087 0)
(0.042047 -0.025848 0)
(0.070318 -0.037216 0)
(0.062747 -0.034945 0)
(0.080469 -0.037235 0)
(0.091975 -0.035698 0)
(0.026293 -0.018082 0)
(0.024953 -0.017613 0)
(0.024510 -0.021602 0)
(0.024114 -0.025668 0)
(0.007292 -0.065431 0)
(0.038221 -0.103346 0)
(0.029297 -0.093555 0)
(0.022328 -0.085677 0)
(0.014383 -0.085232 0)
(-0.065426 -0.238769 0)
(0.034288 -0.118094 0)
(0.028976 -0.135600 0)
(-0.034640 -0.225430 0)
(0.020921 -0.155976 0)
(0.011113 -0.176560 0)
(0.000000 -0.200000 0)
(0.008731 -0.078023 0)
(0.003886 -0.071955 0)
(-0.094574 -0.248995 0)
(-0.663918 0.038977 0)
(-0.622454 0.146754 0)
(-0.583252 0.221152 0)
(-0.289474 0.500000 0)
(-0.540371 0.229229 0)
(-0.337207 0.456986 0)
(-0.385190 0.411684 0)
(-0.439053 0.356298 0)
(-0.500000 0.289474 0)
(-0.457346 -0.179709 0)
(-0.500000 -0.131579 0)
(-0.557250 -0.098226 0)
(-0.602514 -0.006329 0)
(-0.155507 -0.276420 0)
(-0.218694 -0.319321 0)
(-0.414480 -0.124707 0)
(-0.375000 -0.169642 0)
(-0.273812 -0.263461 0)
(-0.328390 -0.217019 0)
(0.004900 -0.058502 0)
(0.009463 -0.049347 0)
(0.005843 -0.051442 0)
(0.011006 -0.045345 0)
(0.013550 -0.040920 0)
(0.014486 -0.036712 0)
(0.015412 -0.034285 0)
(0.018698 -0.032891 0)
(0.018438 -0.032263 0)
(0.021192 -0.028669 0)
(0.090188 0.586596 0)
(0.043529 0.601397 0)
(-0.016810 0.610339 0)
(-0.095101 0.610411 0)
(-0.136597 0.574239 0)
(-0.183547 0.542646 0)
(-0.236842 0.500000 0)
(0.124483 0.543121 0)
(0.365501 0.321262 0)
(0.184211 0.500000 0)
(0.231439 0.458334 0)
(0.277204 0.416667 0)
(0.321604 0.375000 0)
(0.356316 0.264315 0)
(0.338187 0.193617 0)
(0.297321 0.120010 0)
(0.259057 0.068235 0)
(0.105929 -0.033784 0)
(0.229086 0.030568 0)
(0.200000 0.000000 0)
(0.121106 -0.030682 0)
(0.178196 -0.011404 0)
(0.156665 -0.019538 0)
(0.137665 -0.025965 0)
(0.060191 -0.030156 0)
(0.054001 -0.028879 0)
(0.037109 -0.024914 0)
(0.032049 -0.022077 0)
(0.028479 -0.019817 0)
(0.041342 -0.022426 0)
(0.049744 -0.026096 0)
(0.046142 -0.024207 0)
(0.028249 -0.016361 0)
(0.075893 -0.028317 0)
(0.066372 -0.028501 0)
(0.096611 -0.022124 0)
(0.086087 -0.025979 0)
(0.077740 -0.018569 0)
(0.025836 -0.014543 0)
(0.027639 -0.012864 0)
(0.024812 -0.013899 0)
(0.024420 -0.017471 0)
(0.024045 -0.021445 0)
(0.023709 -0.025501 0)
(-0.000730 -0.065351 0)
(-0.006148 -0.062509 0)
(0.022976 -0.106588 0)
(0.015243 -0.095453 0)
(0.004817 -0.087672 0)
(-0.060969 -0.218777 0)
(0.017971 -0.121558 0)
(0.010365 -0.138874 0)
(-0.027267 -0.198128 0)
(-0.001160 -0.157158 0)
(-0.013899 -0.176261 0)
(-0.001783 -0.079421 0)
(-0.003680 -0.072242 0)
(-0.136203 -0.234605 0)
(-0.088613 -0.212447 0)
(-0.584269 0.036856 0)
(-0.609792 0.078484 0)
(-0.573524 0.162297 0)
(-0.284672 0.457849 0)
(-0.534845 0.176841 0)
(-0.500000 0.236842 0)
(-0.331442 0.415146 0)
(-0.375000 0.375000 0)
(-0.437802 0.306095 0)
(-0.455998 -0.128188 0)
(-0.500000 -0.078947 0)
(-0.550775 -0.023303 0)
(-0.211112 -0.253768 0)
(-0.414250 -0.076187 0)
(-0.375000 -0.119717 0)
(-0.331642 -0.167578 0)
(-0.281378 -0.210879 0)
(-0.002311 -0.058629 0)
(-0.008218 -0.057738 0)
(0.001007 -0.053262 0)
(0.006294 -0.045747 0)
(0.003028 -0.047218 0)
(0.008463 -0.040741 0)
(0.010385 -0.036787 0)
(0.011092 -0.034382 0)
(0.014739 -0.033025 0)
(0.014539 -0.032368 0)
(0.018221 -0.031740 0)
(0.020896 -0.028373 0)
(0.080827 0.544764 0)
(0.031439 0.549751 0)
(-0.024161 0.552849 0)
(-0.081696 0.550678 0)
(-0.128614 0.544852 0)
(-0.184211 0.500000 0)
(-0.232585 0.458164 0)
(0.131579 0.500000 0)
(0.313997 0.324541 0)
(0.179582 0.458334 0)
(0.225984 0.416667 0)
(0.271038 0.375000 0)
(0.303009 0.274409 0)
(0.283120 0.227058 0)
(0.279747 0.156357 0)
(0.251918 0.100881 0)
(0.244871 0.245744 0)
(0.224582 0.059086 0)
(0.109184 -0.019141 0)
(0.198401 0.025243 0)
(0.177566 0.011956 0)
(0.124125 -0.015166 0)
(0.159008 0.000262 0)
(0.140467 -0.008102 0)
(0.099236 -0.009861 0)
(0.059665 -0.025261 0)
(0.054122 -0.022985 0)
(0.036221 -0.020321 0)
(0.031119 -0.018002 0)
(0.040140 -0.018485 0)
(0.044823 -0.020006 0)
(0.049632 -0.021348 0)
(0.030924 -0.014476 0)
(0.070120 -0.020748 0)
(0.063896 -0.021711 0)
(0.087561 -0.013397 0)
(0.078924 -0.011111 0)
(0.071433 -0.013028 0)
(0.025568 -0.011319 0)