/*--------------------------------*- C++ -*----------------------------------*\
| =========                 |                                                 |
| \\      /  F ield         | OpenFOAM: The Open Source CFD Toolbox           |
|   \\  /    O peration     | Web:      https://www.OpenFOAM.org              |
|  \\    /   A nd           | Version:  8                                     |
|    \\/     M anipulation  |                                                 |
\*---------------------------------------------------------------------------*/
FoamFile
{
    version     2.0;
    format      ascii;
    class       dictionary;
    object      blockMeshDict;
}
// * * * * * * * * * * * * * * * * * * * * * * * * * * * * * * * * * * * * * //

convertToMeters 1;

vertices
(
(1.750000 -0.750000 0)
(1.750000 -0.652958 0)
(1.654121 -0.750000 0)
(1.683803 -0.645951 0)
(1.750000 -0.560239 0)
(1.543013 -0.621898 0)
(1.591260 -0.685501 0)
(1.562245 -0.750000 0)
(1.602537 -0.628686 0)
(1.669484 -0.552958 0)
(1.750000 -0.471649 0)
(1.546967 -0.559176 0)
(1.482940 -0.615502 0)
(1.546729 -0.696659 0)
(1.474206 -0.750000 0)
(1.750000 -0.385878 0)
(1.597413 -0.554406 0)
(1.534985 -0.513143 0)
(1.662080 -0.448571 0)
(1.490291 -0.557893 0)
(1.424595 -0.608808 0)
(1.475574 -0.679106 0)
(1.389272 -0.750000 0)
(1.750000 0.471649 0)
(1.500000 -0.500000 0)
(1.750000 -0.300181 0)
(1.703731 -0.383434 0)
(1.569756 -0.472714 0)
(1.617763 -0.372915 0)
(1.439967 -0.552708 0)
(1.391185 -0.588084 0)
(1.391696 -0.663683 0)
(1.304656 -0.750000 0)
(1.750000 0.560239 0)
(1.568682 0.488828 0)
(1.656096 0.458878 0)
(1.750000 0.385878 0)
(1.447368 -0.500000 0)
(1.500000 -0.447368 0)
(1.750000 -0.214446 0)
(1.670530 -0.316419 0)
(1.560955 -0.394366 0)
(1.587757 -0.334688 0)
(1.391793 -0.550421 0)
(1.355604 -0.606996 0)
(1.305429 -0.675816 0)
(1.220005 -0.750000 0)
(1.628617 0.547310 0)
(1.750000 0.652958 0)
(1.582346 0.447081 0)
(1.500000 0.500000 0)
(1.665000 0.378773 0)
(1.750000 0.300181 0)
(1.750000 -0.042891 0)
(1.394737 -0.500000 0)
(1.750000 -0.128674 0)
(1.446928 -0.447886 0)
(1.500000 -0.394737 0)
(1.677517 -0.224536 0)
(1.605428 -0.291642 0)
(1.552650 -0.338890 0)
(1.340440 -0.560427 0)
(1.310354 -0.625293 0)
(1.232603 -0.671292 0)
(1.135318 -0.750000 0)
(1.532563 0.569609 0)
(1.646406 0.652820 0)
(1.750000 0.750000 0)
(1.575994 0.369456 0)
(1.500000 0.447368 0)
(1.447368 0.500000 0)
(1.672251 0.301007 0)
(1.750000 0.214446 0)
(1.750000 0.042891 0)
(1.660579 -0.058385 0)
(1.342105 -0.500000 0)
(1.394321 -0.448237 0)
(1.675394 -0.144323 0)
(1.446037 -0.395869 0)
(1.500000 -0.342105 0)
(1.612165 -0.228271 0)
(1.552692 -0.287298 0)
(1.050609 -0.750000 0)
(1.256899 -0.583767 0)
(1.146740 -0.667657 0)
(1.007487 -0.626691 0)
(0.967414 -0.602204 0)
(0.965900 -0.750000 0)
(1.458365 0.569016 0)
(1.398152 0.607256 0)
(1.549445 0.655286 0)
(1.654121 0.750000 0)
(1.602439 0.297718 0)
(1.539459 0.332413 0)
(1.500000 0.394737 0)
(1.447583 0.448443 0)
(1.394737 0.500000 0)
(1.673421 0.227370 0)
(1.750000 0.128674 0)
(1.606791 -0.099882 0)
(1.684255 0.027359 0)
(1.599941 -0.030571 0)
(1.605201 0.177478 0)
(1.221020 -0.538239 0)
(1.289474 -0.500000 0)
(1.342659 -0.447940 0)
(1.392937 -0.397010 0)
(1.610153 -0.161809 0)
(1.444515 -0.343826 0)
(1.500000 -0.289474 0)
(1.554443 -0.231815 0)
(1.051120 -0.662142 0)
(1.010301 -0.599488 0)
(1.160380 -0.605885 0)
(0.967775 -0.640867 0)
(0.934451 -0.601424 0)
(0.965987 -0.572477 0)
(0.970785 -0.694930 0)
(0.881191 -0.750000 0)
(1.411542 0.560781 0)
(1.356916 0.619261 0)
(1.449183 0.652053 0)
(1.562245 0.750000 0)
(1.607345 0.234798 0)
(1.547687 0.290778 0)
(1.500000 0.342105 0)
(1.447297 0.396993 0)
(1.395674 0.449342 0)
(1.342105 0.500000 0)
(1.664191 0.170776 0)
(1.680935 0.083397 0)
(1.583161 -0.068892 0)
(1.549519 -0.121496 0)
(1.613087 0.028922 0)
(1.550135 -0.024769 0)
(1.592017 0.142620 0)
(1.550598 0.184074 0)
(1.175150 -0.540806 0)
(1.236842 -0.500000 0)
(1.291714 -0.446105 0)
(1.342240 -0.397627 0)
(1.389813 -0.346153 0)
(1.553408 -0.174887 0)
(1.442501 -0.291316 0)
(1.500000 -0.236842 0)
(0.996867 -0.570985 0)
(1.079410 -0.576292 0)
(0.914511 -0.635598 0)
(0.919005 -0.573351 0)
(0.967944 -0.532405 0)
(0.895323 -0.682213 0)
(0.796482 -0.750000 0)
(1.347236 0.557887 0)
(1.297491 0.618638 0)
(1.372996 0.676053 0)
(1.474206 0.750000 0)
(1.551310 0.236809 0)
(1.500000 0.289474 0)
(1.446142 0.345573 0)
(1.395570 0.399235 0)
(1.344692 0.449598 0)
(1.289474 0.500000 0)
(1.623168 0.104172 0)
(1.546723 -0.073387 0)
(1.500000 -0.131579 0)
(1.554907 0.029152 0)
(1.500000 -0.026316 0)
(1.550886 0.134939 0)
(1.500000 0.184211 0)
(1.130112 -0.530253 0)
(1.184211 -0.500000 0)
(1.239939 -0.442764 0)
(1.288754 -0.393907 0)
(1.338389 -0.345930 0)
(1.385065 -0.294097 0)
(1.500000 -0.184211 0)
(1.440593 -0.238148 0)
(1.019081 -0.535533 0)
(1.078947 -0.500000 0)
(0.865319 -0.607334 0)
(0.920373 -0.541242 0)
(0.973684 -0.500000 0)
(0.820042 -0.575227 0)
(0.809986 -0.661712 0)
(0.711773 -0.750000 0)
(1.293206 0.558838 0)
(1.238140 0.618947 0)
(1.301606 0.682006 0)
(1.389272 0.750000 0)
(1.500000 0.236842 0)
(1.444184 0.293728 0)
(1.393239 0.349629 0)
(1.346294 0.400970 0)
(1.294351 0.448340 0)
(1.236842 0.500000 0)
(1.555436 0.084592 0)
(1.500000 -0.078947 0)
(1.438465 -0.131355 0)
(1.500000 0.026316 0)
(1.437632 -0.025312 0)
(1.500000 0.131579 0)
(1.440050 0.187950 0)
(1.131579 -0.500000 0)
(1.186242 -0.439811 0)
(1.246538 -0.385250 0)
(1.301657 -0.356916 0)
(1.328705 -0.300895 0)
(1.380796 -0.239960 0)
(1.439242 -0.184672 0)
(1.026316 -0.500000 0)
(1.077402 -0.438396 0)
(0.869210 -0.544706 0)
(0.921053 -0.500000 0)
(0.970662 -0.440332 0)
(0.820629 -0.545057 0)
(0.777349 -0.598545 0)
(0.715130 -0.674935 0)
(0.627064 -0.750000 0)
(1.238339 0.559389 0)
(1.183927 0.615748 0)
(1.232185 0.681483 0)
(1.304656 0.750000 0)
(1.441976 0.241158 0)
(1.388613 0.298981 0)
(1.343452 0.355977 0)
(1.300109 0.399581 0)
(1.243208 0.445588 0)
(1.184211 0.500000 0)
(1.500000 0.078947 0)
(1.437990 -0.078291 0)
(1.376956 -0.131060 0)
(1.437451 0.027750 0)
(1.375383 -0.024607 0)
(1.438654 0.134442 0)
(1.379592 0.192132 0)
(1.131659 -0.438421 0)
(1.189319 -0.377892 0)
(1.265316 -0.321179 0)
(1.319839 -0.242932 0)
(1.378132 -0.185069 0)
(1.023748 -0.439099 0)
(1.075422 -0.376312 0)
(0.868421 -0.500000 0)
(0.918037 -0.441797 0)
(0.967211 -0.380646 0)
(0.815789 -0.500000 0)
(0.766620 -0.548933 0)
(0.712165 -0.609295 0)
(0.632398 -0.675753 0)
(0.542355 -0.750000 0)
(1.184367 0.560575 0)
(1.146176 0.612690 0)
(1.182582 0.677340 0)
(1.220005 0.750000 0)
(1.383648 0.246354 0)
(1.333377 0.308610 0)
(1.306623 0.363248 0)
(1.071246 0.554186 0)
(1.252084 0.391329 0)
(1.190197 0.443005 0)
(1.131579 0.500000 0)
(1.437820 0.080962 0)
(1.376236 -0.077804 0)
(1.316079 -0.130671 0)
(1.374844 0.028772 0)
(1.313897 -0.024823 0)
(1.376837 0.137377 0)
(1.318314 0.196932 0)
(1.131376 -0.375562 0)
(1.192196 -0.312129 0)
(1.257359 -0.245935 0)
(1.317420 -0.185696 0)
(1.020783 -0.378104 0)
(1.072173 -0.313484 0)
(0.866082 -0.443370 0)
(0.914291 -0.383602 0)
(0.963310 -0.321350 0)
(0.814929 -0.444602 0)
(0.763158 -0.500000 0)
(0.710124 -0.552744 0)
(0.642213 -0.610136 0)
(0.536584 -0.668098 0)
(0.457645 -0.750000 0)
(1.125308 0.569729 0)
(1.126485 0.648135 0)
(1.135318 0.750000 0)
(1.062748 0.593206 0)
(1.324517 0.253531 0)
(1.272344 0.330464 0)
(1.022200 0.551982 0)
(1.078947 0.500000 0)
(1.197224 0.384910 0)
(1.136070 0.441460 0)
(1.375276 0.082713 0)
(1.315036 -0.077525 0)
(1.259709 -0.132122 0)
(1.312740 0.028405 0)
(1.257033 -0.028463 0)
(1.313944 0.140306 0)
(1.256385 0.202653 0)
(-0.502095 -0.605129 0)
(1.129946 -0.310619 0)
(1.192713 -0.244098 0)
(1.258550 -0.185996 0)
(1.017314 -0.317688 0)
(1.072673 -0.251921 0)
(0.862775 -0.387201 0)
(0.909122 -0.325199 0)
(0.960406 -0.264012 0)
(0.813402 -0.390469 0)
(0.764349 -0.444882 0)
(0.710526 -0.500000 0)
(0.650992 -0.553049 0)
(0.576359 -0.601796 0)
(0.505730 -0.615657 0)
(0.453292 -0.680627 0)
(0.372936 -0.750000 0)
(1.089720 0.618336 0)
(1.105412 0.684275 0)
(1.050609 0.750000 0)
(1.024719 0.603892 0)
(0.969085 0.551838 0)
(1.263735 0.261676 0)
(1.203516 0.325051 0)
(1.026316 0.500000 0)
(1.081832 0.440782 0)
(1.140475 0.382267 0)
(1.312015 0.083729 0)
(1.257361 -0.080201 0)
(1.213621 -0.133073 0)
(1.250845 0.025261 0)
(1.212719 -0.031681 0)
(1.249692 0.143348 0)
(1.194797 0.202805 0)
(-0.562245 -0.750000 0)
(-0.750000 -0.750000 0)
(-0.467378 -0.607120 0)
(-0.523778 -0.654068 0)
(-0.524291 -0.568331 0)
(0.203518 -0.750000 0)
(-0.464929 -0.648535 0)
(-0.474206 -0.750000 0)
(-0.386485 -0.612234 0)
(1.132034 -0.241772 0)
(1.193908 -0.181283 0)
(1.013377 -0.258611 0)
(1.059988 -0.205466 0)
(0.959218 -0.209595 0)
(0.856273 -0.332498 0)
(0.904506 -0.266524 0)
(0.810141 -0.340674 0)
(0.765357 -0.391123 0)
(0.714026 -0.443943 0)
(0.657895 -0.500000 0)
(0.593363 -0.549494 0)
(0.522246 -0.586851 0)
(0.446477 -0.615344 0)
(0.375144 -0.682853 0)
(0.288227 -0.750000 0)
(0.329043 -0.628352 0)
(1.046294 0.673874 0)
(0.965900 0.750000 0)
(0.966255 0.608338 0)
(0.913457 0.552389 0)
(0.973684 0.500000 0)
(1.203577 0.265534 0)
(1.144292 0.322184 0)
(1.027882 0.440742 0)
(1.084309 0.380977 0)
(1.247245 0.082556 0)
(1.180749 -0.086845 0)
(1.191596 0.010950 0)
(1.180641 0.149837 0)
(1.151292 0.219208 0)
(-0.654121 -0.750000 0)
(-0.567549 -0.685508 0)
(-0.750000 -0.652958 0)
(-0.427708 -0.588799 0)
(-0.482487 -0.553062 0)
(-0.571005 -0.597849 0)
(-0.543300 -0.513147 0)
(0.201939 -0.678932 0)
(0.118809 -0.750000 0)
(0.125938 -0.615915 0)
(0.069700 -0.554132 0)
(-0.411177 -0.631356 0)
(-0.442193 -0.680489 0)
(-0.389272 -0.750000 0)
(-0.358049 -0.625815 0)
(-0.388766 -0.583051 0)
(1.108209 -0.149743 0)
(1.013383 -0.191113 0)
(0.955459 -0.167759 0)
(0.905907 -0.209320 0)
(0.839783 -0.272923 0)
(0.805324 -0.304114 0)
(0.766488 -0.341040 0)
(0.717226 -0.389309 0)
(0.476153 -0.573559 0)
(0.664034 -0.441691 0)
(0.605263 -0.500000 0)
(0.539820 -0.543560 0)
(0.376384 -0.634570 0)
(0.414412 -0.573115 0)
(0.295949 -0.672991 0)
(0.314791 -0.592731 0)
(0.195270 -0.614261 0)
(0.128982 -0.556433 0)
(0.966725 0.674781 0)
(0.881191 0.750000 0)
(0.901378 0.601219 0)
(0.874245 0.538414 0)
(0.921053 0.500000 0)
(0.974199 0.440972 0)
(1.144283 0.263639 0)
(1.085841 0.319717 0)
(1.029003 0.381237 0)
(1.173974 0.077602 0)
(1.132444 -0.024129 0)
(1.103924 0.176761 0)
(-0.750000 0.750000 0)
(-0.641267 -0.648165 0)
(-0.750000 -0.560239 0)
(-0.437671 -0.546160 0)
(-0.500000 -0.500000 0)
(-0.598927 -0.530936 0)
(-0.552807 -0.452019 0)
(0.122432 -0.680691 0)
(0.034100 -0.750000 0)
(0.057042 -0.611447 0)
(-0.135318 -0.750000 0)
(0.078947 -0.500000 0)
(0.013948 -0.549030 0)
(-0.381193 -0.672344 0)
(-0.304656 -0.750000 0)
(-0.328913 -0.625704 0)
(-0.349656 -0.584888 0)
(-0.391672 -0.543388 0)
(1.088736 -0.068586 0)
(1.000753 -0.129309 0)
(0.916526 -0.151728 0)
(0.849104 -0.205022 0)
(0.781691 -0.249534 0)
(0.445902 -0.555977 0)
(0.770760 -0.296083 0)
(0.720202 -0.337602 0)
(0.669374 -0.384940 0)
(0.491102 -0.537676 0)
(0.614118 -0.438959 0)
(0.552632 -0.500000 0)
(0.365882 -0.583395 0)
(0.401948 -0.537081 0)
(0.260356 -0.605801 0)
(0.301118 -0.546854 0)
(0.188831 -0.555650 0)
(0.131579 -0.500000 0)
(0.098197 -0.437497 0)
(0.889680 0.671101 0)
(0.796482 0.750000 0)
(0.833662 0.575504 0)
(0.868421 0.500000 0)
(0.920416 0.441086 0)
(0.974666 0.382304 0)
(0.763158 0.500000 0)
(0.713093 0.541998 0)
(1.088719 0.255910 0)
(1.027164 0.321107 0)
(1.062666 0.062641 0)
(1.036962 0.189301 0)
(0.972226 0.285127 0)
(-0.750000 0.652958 0)
(-0.654121 0.750000 0)
(-0.667917 -0.549711 0)
(-0.750000 -0.471649 0)
(-0.447368 -0.500000 0)
(-0.500000 -0.447368 0)
(-0.611419 -0.458184 0)
(-0.554697 -0.388695 0)
(0.047974 -0.437486 0)
(0.042580 -0.676572 0)
(-0.050609 -0.750000 0)
(-0.009513 -0.605517 0)
(-0.220005 -0.750000 0)
(-0.136362 -0.680821 0)
(0.026316 -0.500000 0)
(-0.043286 -0.542604 0)
(-0.300364 -0.671096 0)
(-0.307004 -0.592930 0)
(-0.344888 -0.544032 0)
(-0.394737 -0.500000 0)
(1.026994 -0.046973 0)
(0.932342 -0.102245 0)
(0.857844 -0.147952 0)
(0.791581 -0.195857 0)
(0.729753 -0.238659 0)
(0.448721 -0.530392 0)
(0.724216 -0.288106 0)
(0.672508 -0.332127 0)
(0.625000 -0.375000 0)
(0.500000 -0.500000 0)
(0.563068 -0.437776 0)
(0.353185 -0.541749 0)
(0.394737 -0.500000 0)
(0.246734 -0.552004 0)
(0.289474 -0.500000 0)
(0.184211 -0.500000 0)
(0.148964 -0.437499 0)
(0.116890 -0.375000 0)
(0.809168 0.659672 0)
(0.758610 0.565960 0)
(0.711773 0.750000 0)
(0.974008 0.326060 0)
(0.815789 0.500000 0)
(0.866268 0.441311 0)
(0.920278 0.382246 0)
(0.678729 0.568846 0)
(0.758397 0.441842 0)
(0.710526 0.500000 0)
(0.948339 0.044231 0)
(1.016113 0.251448 0)
(0.998405 0.142956 0)
(0.930412 0.269108 0)
(-0.750000 0.560239 0)
(-0.612936 0.555122 0)
(-0.638899 0.648651 0)
(-0.562245 0.750000 0)
(-0.677888 -0.465575 0)
(-0.750000 -0.385878 0)
(-0.451576 -0.444986 0)
(-0.500000 -0.394737 0)
(-0.614643 -0.383177 0)
(-0.550648 -0.327808 0)
(-0.001902 -0.437429 0)
(0.069304 -0.375000 0)
(-0.049176 -0.661418 0)
(-0.045851 -0.578775 0)
(-0.211010 -0.681223 0)
(-0.143483 -0.632869 0)
(-0.026316 -0.500000 0)
(-0.087713 -0.541087 0)
(-0.256931 -0.607560 0)
(-0.295795 -0.547810 0)
(-0.342105 -0.500000 0)
(-0.403914 -0.442052 0)
(0.946883 -0.032190 0)
(0.872757 0.034453 0)
(0.861486 0.093124 0)
(0.867307 -0.090207 0)
(0.798896 -0.140635 0)
(0.735397 -0.187470 0)
(0.677442 -0.231459 0)
(0.447368 -0.500000 0)
(0.674864 -0.281601 0)
(0.625000 -0.325000 0)
(0.573892 -0.375000 0)
(0.511355 -0.437552 0)
(0.342105 -0.500000 0)
(0.407652 -0.437502 0)
(0.236842 -0.500000 0)
(0.303920 -0.437500 0)
(0.200342 -0.437500 0)
(0.165631 -0.375000 0)
(0.126269 -0.328953 0)
(0.106884 -0.275753 0)
(0.715348 0.637650 0)
(0.627064 0.750000 0)
(0.922260 0.324417 0)
(0.812321 0.442024 0)
(0.863855 0.381825 0)
(0.756828 0.389370 0)
(0.614678 0.574012 0)
(0.657895 0.500000 0)
(0.697105 0.436405 0)
(0.923840 0.115304 0)
(0.953640 0.212266 0)
(0.870033 0.255879 0)
(-0.665128 0.558953 0)
(-0.750000 0.471649 0)
(-0.601274 0.513605 0)
(-0.578993 0.597646 0)
(-0.558753 0.694118 0)
(-0.474206 0.750000 0)
(-0.681173 -0.383312 0)
(-0.750000 -0.300181 0)
(-0.454981 -0.390551 0)
(-0.500000 -0.342105 0)
(-0.542601 -0.275902 0)
(-0.615876 -0.292091 0)
(-0.051538 -0.437134 0)
(0.022322 -0.375000 0)
(0.074827 -0.313368 0)
(-0.097420 -0.602834 0)
(-0.192393 -0.611042 0)
(-0.078947 -0.500000 0)
(-0.128215 -0.528054 0)
(-0.240786 -0.553709 0)
(-0.289474 -0.500000 0)
(-0.356390 -0.438974 0)
(-0.411686 -0.385134 0)
(0.846496 0.134325 0)
(0.874050 -0.028717 0)
(0.808279 0.028997 0)
(0.804867 0.083163 0)
(0.804821 -0.084830 0)
(0.740247 -0.134629 0)
(0.680073 -0.180847 0)
(0.625000 -0.225000 0)
(0.459515 -0.437509 0)
(0.625000 -0.275000 0)
(0.572590 -0.324234 0)
(0.522784 -0.375000 0)
(0.355784 -0.437500 0)
(0.420569 -0.375000 0)
(0.252076 -0.437500 0)
(0.318353 -0.375000 0)
(0.216138 -0.375000 0)
(0.170504 -0.333954 0)
(0.138804 -0.291484 0)
(0.129551 -0.252557 0)
(0.082265 -0.248846 0)
(0.624312 0.656611 0)
(0.542355 0.750000 0)
(0.863158 0.320384 0)
(0.807159 0.384779 0)
(0.754150 0.352373 0)
(0.710517 0.385021 0)
(0.549745 0.577464 0)
(0.605263 0.500000 0)
(0.643420 0.452350 0)
(0.663877 0.405447 0)
(0.879482 0.180682 0)
(0.803124 0.249240 0)
(-0.750000 0.385878 0)
(-0.389272 0.750000 0)
(-0.654853 0.472980 0)
(-0.579773 0.484652 0)
(-0.550318 0.540187 0)
(-0.474736 0.643382 0)
(-0.682519 -0.300175 0)
(-0.750000 -0.214446 0)
(-0.456960 -0.337136 0)
(-0.500000 -0.289474 0)
(-0.575482 -0.262715 0)
(-0.538502 -0.226106 0)
(-0.625661 -0.219402 0)
(-0.100486 -0.435617 0)
(-0.024429 -0.375000 0)
(0.020479 -0.321937 0)
(0.051313 -0.265769 0)
(-0.169838 -0.559584 0)
(-0.131579 -0.500000 0)
(-0.236842 -0.500000 0)
(-0.306464 -0.437434 0)
(-0.375000 -0.375000 0)
(-0.415120 -0.331318 0)
(0.802312 0.140795 0)
(0.808434 -0.027868 0)
(0.746393 0.026677 0)
(0.745679 0.079466 0)
(0.743932 -0.081050 0)
(0.682399 -0.129605 0)
(0.625000 -0.175000 0)
(0.571063 -0.225479 0)
(0.471677 -0.375000 0)
(0.571854 -0.274233 0)
(0.519380 -0.322755 0)
(0.369461 -0.375000 0)
(0.411199 -0.324700 0)
(0.267245 -0.375000 0)
(0.310390 -0.331279 0)
(0.215690 -0.334783 0)
(0.175366 -0.296152 0)
(0.145856 -0.266218 0)
(0.153688 -0.236801 0)
(0.108456 -0.231115 0)
(0.064681 -0.220062 0)
(0.546320 0.660701 0)
(0.457645 0.750000 0)
(0.485424 0.574018 0)
(0.792099 0.321642 0)
(0.718583 0.341068 0)
(0.669783 0.375891 0)
(0.552632 0.500000 0)
(0.593303 0.456414 0)
(0.630393 0.415607 0)
(0.805494 0.188217 0)
(0.740056 0.240743 0)
(-0.750000 0.300181 0)
(-0.665354 0.368165 0)
(-0.304656 0.750000 0)
(-0.380354 0.676766 0)
(-0.592815 0.445802 0)
(-0.544467 0.491746 0)
(-0.489244 0.553640 0)
(-0.409029 0.596801 0)
(-0.685268 -0.218116 0)
(-0.750000 -0.128674 0)
(-0.457763 -0.284550 0)
(-0.500000 -0.236842 0)
(-0.578253 -0.218959 0)
(-0.534577 -0.175172 0)
(-0.624897 -0.147829 0)
(-0.140295 -0.430434 0)
(-0.071742 -0.375000 0)
(0.036785 -0.229633 0)
(-0.024852 -0.323272 0)
(0.013646 -0.274765 0)
(-0.184211 -0.500000 0)
(-0.174803 -0.410173 0)
(-0.255802 -0.435675 0)
(-0.323892 -0.375000 0)
(-0.375000 -0.324280 0)
(-0.416077 -0.279261 0)
(0.744749 0.131784 0)
(0.746159 -0.027097 0)
(0.685544 0.025624 0)
(0.685328 0.077116 0)
(0.684177 -0.077947 0)
(0.625000 -0.125000 0)
(0.568597 -0.176826 0)
(0.519650 -0.226173 0)
(0.464894 -0.321816 0)
(0.518391 -0.272087 0)
(0.359855 -0.328264 0)
(0.399323 -0.276333 0)
(0.262311 -0.333543 0)
(0.302051 -0.288920 0)
(0.214883 -0.296748 0)
(0.178375 -0.255135 0)
(0.164127 -0.221380 0)
(0.131297 -0.215130 0)
(0.089968 -0.207868 0)
(0.050022 -0.193643 0)
(0.469209 0.656607 0)
(0.372936 0.750000 0)
(0.432872 0.569836 0)
(0.500000 0.500000 0)
(0.730841 0.295043 0)
(0.672559 0.331233 0)
(0.625000 0.375000 0)
(0.542170 0.457654 0)
(0.582581 0.414834 0)
(0.743785 0.185230 0)
(0.681551 0.232266 0)
(-0.750000 0.214446 0)
(-0.684855 0.289157 0)
(-0.622338 0.325761 0)
(-0.597183 0.387072 0)
(-0.220005 0.750000 0)
(-0.300779 0.687834 0)
(-0.359111 0.620642 0)
(-0.545700 0.443403 0)
(-0.500000 0.500000 0)
(-0.436021 0.548681 0)
(-0.380423 0.569212 0)
(-0.135318 0.750000 0)
(-0.685038 -0.137639 0)
(-0.750000 -0.042891 0)
(-0.750000 0.128674 0)
(-0.457908 -0.232398 0)
(-0.500000 -0.184211 0)
(-0.573857 -0.160513 0)
(-0.524017 -0.135146 0)
(-0.615850 -0.074889 0)
(-0.120262 -0.375000 0)
(0.032930 -0.174992 0)
(0.025243 -0.198401 0)
(-0.070313 -0.319460 0)
(0.006388 -0.234723 0)
(-0.025067 -0.275945 0)
(-0.212521 -0.429204 0)
(-0.170569 -0.375000 0)
(-0.272784 -0.375000 0)
(-0.323951 -0.322103 0)
(-0.375000 -0.273561 0)
(-0.416240 -0.227744 0)
(0.684816 0.128541 0)
(0.685240 -0.026119 0)
(0.625000 0.025000 0)
(0.625000 0.075000 0)
(0.481031 -0.225989 0)
(0.625000 -0.075000 0)
(0.564942 -0.126545 0)
(0.513865 -0.180738 0)
(0.457324 -0.262138 0)
(0.345351 -0.283585 0)
(0.387714 -0.238365 0)
(0.256854 -0.293010 0)
(0.294294 -0.257869 0)
(0.212296 -0.267854 0)
(0.204449 -0.225153 0)
(0.153353 -0.201058 0)
(0.113333 -0.194405 0)
(0.074191 -0.185730 0)
(0.056497 -0.169838 0)
(0.041033 -0.153213 0)
(0.288227 0.750000 0)
(0.382361 0.637623 0)
(0.391080 0.539802 0)
(0.447368 0.500000 0)
(0.490403 0.458103 0)
(0.677530 0.283084 0)
(0.625000 0.325000 0)
(0.573921 0.375000 0)
(0.532198 0.416013 0)
(0.683816 0.180303 0)
(0.625000 0.225000 0)
(0.203518 0.750000 0)
(-0.687460 0.213169 0)
(-0.632425 0.278495 0)
(-0.591168 0.331387 0)
(-0.546819 0.390894 0)
(-0.224785 0.690442 0)
(-0.295097 0.632523 0)
(-0.343228 0.578619 0)
(-0.500000 0.447368 0)
(-0.447368 0.500000 0)
(-0.387280 0.540647 0)
(-0.149017 0.687906 0)
(-0.050609 0.750000 0)
(0.168084 0.662558 0)
(0.034100 0.750000 0)
(0.118809 0.750000 0)
(-0.679469 -0.055587 0)
(-0.750000 0.042891 0)
(-0.681757 0.133499 0)
(-0.457519 -0.180495 0)
(-0.500000 -0.131579 0)
(-0.557250 -0.098226 0)
(-0.602514 -0.006329 0)
(-0.414543 -0.125971 0)
(-0.124336 -0.307344 0)
(0.027323 -0.138019 0)
(0.019642 -0.156850 0)
(0.011318 -0.178745 0)
(0.000000 -0.200000 0)
(-0.063720 -0.270523 0)
(-0.025076 -0.234617 0)
(-0.221677 -0.375000 0)
(-0.175377 -0.320933 0)
(-0.153323 -0.263625 0)
(-0.415867 -0.176560 0)
(-0.272526 -0.320480 0)
(-0.324489 -0.268757 0)
(-0.375000 -0.222841 0)
(0.625000 0.125000 0)
(0.625000 -0.025000 0)
(0.566223 0.028381 0)
(0.567823 0.077991 0)
(0.463612 -0.192760 0)
(0.562639 -0.074370 0)
(0.503493 -0.130629 0)
(0.416033 -0.212722 0)
(0.329484 -0.221862 0)
(0.244394 -0.243364 0)
(0.221886 -0.195091 0)
(0.181735 -0.184661 0)
(0.135936 -0.180060 0)
(0.097633 -0.174550 0)
(0.076785 -0.160721 0)
(0.059263 -0.146921 0)
(0.044669 -0.132114 0)
(0.032256 -0.120917 0)
(0.024596 -0.098350 0)
(0.016841 -0.090087 0)
(0.011082 -0.082202 0)
(0.291896 0.657707 0)
(0.340756 0.565700 0)
(0.394737 0.500000 0)
(0.438413 0.458256 0)
(0.480985 0.416439 0)
(0.625000 0.275000 0)
(0.574122 0.325396 0)
(0.522842 0.375000 0)
(0.625000 0.175000 0)
(0.572475 0.227796 0)
(0.216485 0.664276 0)
(0.169342 0.611030 0)
(-0.631521 0.215092 0)
(-0.587431 0.277811 0)
(-0.545576 0.336987 0)
(-0.500000 0.394737 0)
(-0.229400 0.635512 0)
(-0.290483 0.585038 0)
(-0.340023 0.539993 0)
(-0.444967 0.451580 0)
(-0.394737 0.500000 0)
(-0.163890 0.630769 0)
(-0.072341 0.682283 0)
(0.114166 0.626790 0)
(0.003677 0.676320 0)
(0.068984 0.660587 0)
(-0.663918 0.038977 0)
(-0.622454 0.146754 0)
(-0.584269 0.036856 0)
(-0.456058 -0.128774 0)
(-0.500000 -0.078947 0)
(-0.550775 -0.023303 0)
(-0.375000 -0.121966 0)
(-0.411032 -0.077215 0)
(0.021852 -0.110619 0)
(0.013919 -0.100898 0)
(0.008287 -0.092176 0)
(0.004076 -0.084998 0)
(-0.100857 -0.256739 0)
(0.016494 -0.124530 0)
(0.008855 -0.139890 0)
(0.000638 -0.159002 0)
(-0.011274 -0.178346 0)
(-0.025263 -0.198394 0)
(-0.056357 -0.229272 0)
(-0.222063 -0.320768 0)
(-0.178567 -0.282173 0)
(-0.181926 -0.234881 0)
(-0.131673 -0.234290 0)
(-0.375000 -0.172124 0)
(-0.272707 -0.264531 0)
(-0.326070 -0.214755 0)
(0.004076 -0.076973 0)
(-0.002551 -0.080747 0)
(0.568552 0.128206 0)
(0.563568 -0.022123 0)
(0.509386 0.032565 0)
(0.511785 0.079833 0)
(0.441344 -0.143242 0)
(0.496195 -0.074442 0)
(0.373066 -0.166961 0)
(0.369184 -0.114443 0)
(0.267146 -0.190913 0)
(0.203258 -0.170544 0)
(0.157805 -0.164377 0)
(0.119468 -0.160397 0)
(0.096645 -0.149513 0)
(0.077392 -0.137830 0)
(0.061228 -0.127098 0)
(0.047759 -0.114683 0)
(0.034862 -0.106012 0)
(0.035707 -0.093187 0)
(0.025849 -0.086993 0)
(0.018242 -0.080118 0)
(0.012179 -0.073146 0)
(0.011313 -0.066881 0)
(0.288759 0.575113 0)
(0.342105 0.500000 0)
(0.386347 0.458308 0)
(0.429517 0.416589 0)
(0.471763 0.375000 0)
(0.573898 0.276365 0)
(0.523504 0.325094 0)
(0.570102 0.178564 0)
(0.521097 0.229168 0)
(0.140842 0.594815 0)
(0.214972 0.580799 0)
(-0.583252 0.221152 0)
(-0.543473 0.283179 0)
(-0.500000 0.342105 0)
(-0.442039 0.403922 0)
(-0.233591 0.587282 0)
(-0.289020 0.541976 0)
(-0.342105 0.500000 0)
(-0.390489 0.454992 0)
(-0.178066 0.584389 0)
(-0.136597 0.574239 0)
(-0.095101 0.610411 0)
(0.118986 0.574142 0)
(0.090188 0.586596 0)
(-0.016810 0.610339 0)
(0.043529 0.601397 0)
(-0.609792 0.078484 0)
(-0.573524 0.162297 0)
(-0.547132 0.045409 0)
(-0.336418 -0.121397 0)
(-0.451277 -0.076441 0)
(-0.500000 -0.026316 0)
(-0.375000 -0.072981 0)
(-0.405599 -0.039134 0)
(-0.522853 0.136818 0)
(-0.534845 0.176841 0)
(0.008060 -0.112190 0)
(0.002108 -0.101346 0)
(-0.001104 -0.091740 0)
(-0.086215 -0.218513 0)
(-0.000020 -0.125399 0)
(-0.008733 -0.141759 0)
(-0.020109 -0.157721 0)
(-0.034170 -0.174664 0)
(-0.050251 -0.193583 0)
(-0.215516 -0.261291 0)
(-0.192946 -0.210405 0)
(-0.155879 -0.210375 0)
(-0.113197 -0.202997 0)
(-0.330111 -0.162579 0)
(-0.275744 -0.206901 0)
(-0.008052 -0.087523 0)
(-0.010632 -0.078154 0)
(0.004625 -0.068300 0)
(-0.003729 -0.072443 0)
(0.510792 0.131017 0)
(0.500006 -0.017032 0)
(0.465648 0.041110 0)
(0.457628 0.075731 0)
(0.414407 -0.078347 0)
(0.304998 -0.143747 0)
(0.325847 -0.099069 0)
(0.235964 -0.145765 0)
(0.178855 -0.145890 0)
(0.138797 -0.143998 0)
(0.114439 -0.135701 0)
(0.093985 -0.127065 0)
(0.076674 -0.118081 0)
(0.061631 -0.109417 0)
(0.048743 -0.099272 0)
(0.043533 -0.087691 0)
(0.034404 -0.080798 0)
(0.026725 -0.076100 0)
(0.020658 -0.071841 0)
(0.018051 -0.066334 0)
(0.013722 -0.062832 0)
(0.009100 -0.062141 0)
(0.289474 0.500000 0)
(0.334261 0.458326 0)
(0.377969 0.416641 0)
(0.420684 0.375000 0)
(0.472439 0.323239 0)
(0.524139 0.276956 0)
(0.513505 0.183983 0)
(0.482648 0.236344 0)
(0.166214 0.551944 0)
(0.236842 0.500000 0)
(-0.540371 0.229229 0)
(-0.500000 0.289474 0)
(-0.439035 0.356416 0)
(-0.385044 0.411699 0)
(-0.235763 0.542893 0)
(-0.289474 0.500000 0)
(-0.337003 0.456990 0)
(-0.183547 0.542646 0)
(-0.128614 0.544852 0)
(-0.081696 0.550678 0)
(0.124483 0.543121 0)
(0.080827 0.544764 0)
(-0.024161 0.552849 0)
(0.031439 0.549751 0)
(-0.554006 0.102785 0)
(-0.500000 0.026316 0)
(-0.309037 -0.112824 0)
(-0.338698 -0.077228 0)
(-0.433820 -0.013119 0)
(-0.375000 -0.024632 0)
(-0.500000 0.131579 0)
(-0.500000 0.184211 0)
(-0.006006 -0.111221 0)
(-0.009867 -0.098275 0)
(-0.074709 -0.185522 0)
(-0.014677 -0.124637 0)
(-0.026475 -0.139521 0)
(-0.040305 -0.153048 0)
(-0.055744 -0.169118 0)
(-0.233060 -0.202551 0)
(-0.176866 -0.188613 0)
(-0.136742 -0.184817 0)
(-0.098380 -0.174130 0)
(-0.239318 -0.160927 0)
(-0.277572 -0.140413 0)
(-0.274189 -0.088231 0)
(-0.016330 -0.088116 0)
(-0.018838 -0.078257 0)
(-0.012817 -0.071059 0)
(0.003016 -0.061525 0)
(-0.001812 -0.065752 0)
(0.002231 -0.056726 0)
(-0.007395 -0.065704 0)
(0.449260 0.129734 0)
(0.427634 0.001941 0)
(0.402193 0.062209 0)
(0.343915 -0.053729 0)
(0.257162 -0.118433 0)
(0.275501 -0.081118 0)
(0.199838 -0.123905 0)
(0.155864 -0.125324 0)
(0.131064 -0.120184 0)
(0.109258 -0.114341 0)
(0.091012 -0.108104 0)
(0.076115 -0.101116 0)
(0.063121 -0.094809 0)
(0.053256 -0.086617 0)
(0.044183 -0.077005 0)
(0.035159 -0.070515 0)
(0.027191 -0.065994 0)
(0.002575 -0.049865 0)
(0.022339 -0.061749 0)
(0.017354 -0.060018 0)
(0.012727 -0.057594 0)
(0.007484 -0.057386 0)
(0.005871 -0.052219 0)
(0.282191 0.458332 0)
(0.326401 0.416658 0)
(0.369605 0.375000 0)
(0.418823 0.320403 0)
(0.469487 0.272327 0)
(0.446557 0.198517 0)
(0.184211 0.500000 0)
(0.230183 0.458334 0)
(-0.500000 0.236842 0)
(-0.437798 0.306461 0)
(-0.375000 0.375000 0)
(-0.331063 0.415150 0)
(-0.236842 0.500000 0)
(-0.284339 0.457850 0)
(-0.184211 0.500000 0)
(-0.131579 0.500000 0)
(-0.078947 0.500000 0)
(0.131579 0.500000 0)
(0.078947 0.500000 0)
(-0.026316 0.500000 0)
(0.026316 0.500000 0)
(-0.500000 0.078947 0)
(-0.436670 0.046808 0)
(-0.300959 -0.083720 0)
(-0.335043 -0.034986 0)
(-0.375000 0.023678 0)
(-0.278086 -0.060083 0)
(-0.437471 0.151832 0)
(-0.437505 0.203507 0)
(-0.018114 -0.108632 0)
(-0.023239 -0.097395 0)
(-0.077221 -0.160250 0)
(-0.029178 -0.121265 0)
(-0.044374 -0.134204 0)
(-0.059336 -0.146886 0)
(-0.198124 -0.167372 0)
(-0.157540 -0.165484 0)
(-0.120289 -0.159783 0)
(-0.097406 -0.147969 0)
(-0.218017 -0.141600 0)
(-0.234103 -0.116363 0)
(-0.247715 -0.079692 0)
(-0.026849 -0.085326 0)
(-0.026985 -0.074558 0)
(-0.000159 -0.053693 0)
(-0.001343 -0.049180 0)
(-0.019611 -0.068856 0)
(-0.014089 -0.064350 0)
(-0.003724 -0.058830 0)
(-0.009659 -0.060492 0)
(0.002196 -0.031656 0)
(0.001394 -0.029028 0)
(0.001059 -0.026399 0)
(-0.000228 -0.025763 0)
(0.384999 0.116958 0)
(0.350973 -0.001799 0)
(0.343354 0.049584 0)
(0.288022 -0.042440 0)
(0.217905 -0.097156 0)
(0.231582 -0.066711 0)
(0.170973 -0.103770 0)
(0.144973 -0.102049 0)
(0.122795 -0.099418 0)
(0.104281 -0.096249 0)
(0.088531 -0.092265 0)
(0.074605 -0.087175 0)
(0.063768 -0.080258 0)
(0.053854 -0.074288 0)
(0.044321 -0.067405 0)
(0.036868 -0.061821 0)
(0.030790 -0.059232 0)
(0.025942 -0.059269 0)
(0.001654 -0.045338 0)
(0.005435 -0.047501 0)
(0.021911 -0.055644 0)
(0.017074 -0.053838 0)
(0.011797 -0.052800 0)
(0.009045 -0.049263 0)
(0.003748 -0.033640 0)
(0.004947 -0.031174 0)
(0.001855 -0.021749 0)
(0.003572 -0.029063 0)
(0.000672 -0.023944 0)
(0.002835 -0.026903 0)
(0.002152 -0.025093 0)
(0.274851 0.416665 0)
(0.318526 0.375000 0)
(0.363397 0.320595 0)
(0.421235 0.263205 0)
(0.357935 0.183343 0)
(0.178319 0.458334 0)
(0.223384 0.416667 0)
(-0.437557 0.255120 0)
(-0.375000 0.324280 0)
(-0.323921 0.375000 0)
(-0.278812 0.416165 0)
(-0.232137 0.458165 0)
(-0.180262 0.458275 0)
(-0.128735 0.458314 0)
(-0.077550 0.458327 0)
(0.126702 0.458334 0)
(0.075389 0.458334 0)
(-0.026584 0.458332 0)
(0.024339 0.458334 0)
(-0.437339 0.100003 0)
(-0.375000 0.072230 0)
(-0.300459 -0.048892 0)
(-0.328357 0.009996 0)
(-0.257962 -0.047285 0)
(-0.375000 0.172123 0)
(-0.375000 0.222841 0)
(-0.033488 -0.106270 0)
(-0.036802 -0.092379 0)
(-0.078197 -0.137585 0)
(-0.045759 -0.116855 0)
(-0.061073 -0.127362 0)
(-0.176423 -0.144523 0)
(-0.139531 -0.143287 0)
(-0.116013 -0.134862 0)
(-0.095277 -0.125470 0)
(-0.193531 -0.121018 0)
(-0.208061 -0.094895 0)
(-0.219103 -0.066237 0)
(-0.037234 -0.080222 0)
(-0.026936 -0.066413 0)
(-0.033844 -0.071575 0)
(0.003904 -0.036864 0)
(0.002901 -0.040965 0)
(0.001043 -0.034504 0)
(-0.000070 -0.042193 0)
(-0.002289 -0.045428 0)
(-0.004695 -0.052945 0)
(-0.005201 -0.048385 0)
(-0.029687 -0.060651 0)
(-0.025368 -0.060136 0)
(-0.020328 -0.061556 0)
(-0.014800 -0.057840 0)
(-0.009105 -0.055427 0)
(-0.000330 -0.031674 0)
(0.000444 -0.022444 0)
(0.000000 -0.021687 0)
(-0.000962 -0.028381 0)
(-0.000539 -0.023722 0)
(-0.001185 -0.025658 0)
(0.327595 0.096959 0)
(0.292559 -0.001228 0)
(0.288568 0.040100 0)
(0.240240 -0.034220 0)
(0.183426 -0.079718 0)
(0.192561 -0.054038 0)
(0.157210 -0.081777 0)
(0.134238 -0.081762 0)
(0.114765 -0.081278 0)
(0.097952 -0.079164 0)
(0.084104 -0.078008 0)
(0.072451 -0.075395 0)
(0.063876 -0.067645 0)
(0.052935 -0.064851 0)
(0.060561 -0.060122 0)
(0.045610 -0.058656 0)
(0.047865 -0.052260 0)
(0.039233 -0.055673 0)
(0.033806 -0.054434 0)
(0.027383 -0.052948 0)
(0.005819 -0.043361 0)
(0.006307 -0.039739 0)
(0.008930 -0.045015 0)
(0.021785 -0.050294 0)
(0.016685 -0.048784 0)
(0.012831 -0.047170 0)
(0.006977 -0.037045 0)
(0.006672 -0.034002 0)
(0.006978 -0.031351 0)
(0.006495 -0.029534 0)
(0.005263 -0.028830 0)
(0.001989 -0.022135 0)
(0.003187 -0.021813 0)
(0.002012 -0.021369 0)