/*--------------------------------*- C++ -*----------------------------------*\
  =========                 |
  \\      /  F ield         | OpenFOAM: The Open Source CFD Toolbox
   \\    /   O peration     | Website:  https://openfoam.org
    \\  /    A nd           | Version:  8
     \\/     M anipulation  |
\*---------------------------------------------------------------------------*/
FoamFile
{
    version     2.0;
    format      ascii;
    class       polyBoundaryMesh;
    location    "constant/polyMesh";
    object      boundary;
}
// * * * * * * * * * * * * * * * * * * * * * * * * * * * * * * * * * * * * * //

6
(
    top
    {
        type            symmetryPlane;
        inGroups        List<word> 1(symmetryPlane);
        nFaces          490;
        startFace       243285;
    }
    bottom
    {
        type            symmetryPlane;
        inGroups        List<word> 1(symmetryPlane);
        nFaces          484;
        startFace       243775;
    }
    inlet
    {
        type            patch;
        nFaces          253;
        startFace       244259;
    }
    outlet
    {
        type            patch;
        nFaces          253;
        startFace       244512;
    }
    deck
    {
        type            wall;
        inGroups        List<word> 1(wall);
        nFaces          286;
        startFace       244765;
    }
    frontAndBack
    {
        type            empty;
        inGroups        List<word> 1(empty);
        nFaces          244168;
        startFace       245051;
    }
)

// ************************************************************************* //
