/*--------------------------------*- C++ -*----------------------------------*\
| =========                 |                                                 |
| \\      /  F ield         | OpenFOAM: The Open Source CFD Toolbox           |
|  \\    /   O peration     | Version:  5                                     |
|   \\  /    A nd           | Web:      www.OpenFOAM.org                      |
|    \\/     M anipulation  |                                                 |
\*---------------------------------------------------------------------------*/
FoamFile
{
    version     2.0;
    format      ascii;
    class       dictionary;
    object      blockMeshDict;
}
// * * * * * * * * * * * * * * * * * * * * * * * * * * * * * * * * * * * * * //

convertToMeters 0.1;

vertices
(
    (-1.500000 -1.500000 0.000000)
    (-0.302500 -1.500000 0.000000)
    (-0.151250 -1.500000 0.000000)
    (-0.120045 -1.500000 0.000000)
    (-0.108125 -1.500000 0.000000)
    (-0.089375 -1.500000 0.000000)
    (-0.077391 -1.500000 0.000000)
    (0.000000 -1.500000 0.000000)
    (0.077391 -1.500000 0.000000)
    (0.089375 -1.500000 0.000000)
    (0.108125 -1.500000 0.000000)
    (0.120045 -1.500000 0.000000)
    (0.151250 -1.500000 0.000000)
    (0.302500 -1.500000 0.000000)
    (4.500000 -1.500000 0.000000)
    (-1.500000 -0.062500 0.000000)
    (-0.302500 -0.062500 0.000000)
    (-0.151250 -0.062500 0.000000)
    (-0.120045 -0.062500 0.000000)
    (-0.108125 -0.062500 0.000000)
    (-0.089375 -0.062500 0.000000)
    (-0.077391 -0.062500 0.000000)
    (0.000000 -0.062500 0.000000)
    (0.077391 -0.062500 0.000000)
    (0.089375 -0.062500 0.000000)
    (0.108125 -0.062500 0.000000)
    (0.120045 -0.062500 0.000000)
    (0.151250 -0.062500 0.000000)
    (0.302500 -0.062500 0.000000)
    (4.500000 -0.062500 0.000000)
    (-1.500000 -0.012500 0.000000)
    (-0.302500 -0.012500 0.000000)
    (-0.151250 -0.012500 0.000000)
    (-0.120045 -0.012500 0.000000)
    (-0.108125 -0.012500 0.000000)
    (-0.089375 -0.012500 0.000000)
    (-0.077391 -0.012500 0.000000)
    (0.000000 -0.012500 0.000000)
    (0.077391 -0.012500 0.000000)
    (0.089375 -0.012500 0.000000)
    (0.108125 -0.012500 0.000000)
    (0.120045 -0.012500 0.000000)
    (0.151250 -0.012500 0.000000)
    (0.302500 -0.012500 0.000000)
    (4.500000 -0.012500 0.000000)
    (-1.500000 0.006350 0.000000)
    (-0.302500 0.006350 0.000000)
    (-0.151250 0.006350 0.000000)
    (-0.120045 0.006974 0.000000)
    (-0.110664 0.005273 0.000000)
    (-0.086766 0.005765 0.000000)
    (-0.077391 0.007827 0.000000)
    (0.000000 0.009375 0.000000)
    (0.077391 0.007827 0.000000)
    (0.086766 0.005765 0.000000)
    (0.110668 0.005287 0.000000)
    (0.120045 0.006974 0.000000)
    (0.151250 0.006350 0.000000)
    (0.302500 0.006350 0.000000)
    (4.500000 0.006350 0.000000)
    (-1.500000 0.009525 0.000000)
    (-0.302500 0.009525 0.000000)
    (-0.151250 0.009525 0.000000)
    (-0.148750 0.009525 0.000000)
    (0.000000 0.012500 0.000000)
    (0.148750 0.009525 0.000000)
    (0.151250 0.009525 0.000000)
    (0.302500 0.009525 0.000000)
    (4.500000 0.009525 0.000000)
    (-1.500000 0.062500 0.000000)
    (-0.302500 0.062500 0.000000)
    (-0.151250 0.062500 0.000000)
    (-0.148750 0.062500 0.000000)
    (0.000000 0.062500 0.000000)
    (0.148750 0.062500 0.000000)
    (0.151250 0.062500 0.000000)
    (0.302500 0.062500 0.000000)
    (4.500000 0.062500 0.000000)
    (-1.500000 1.500000 0.000000)
    (-0.302500 1.500000 0.000000)
    (-0.151250 1.500000 0.000000)
    (-0.148750 1.500000 0.000000)
    (0.000000 1.500000 0.000000)
    (0.148750 1.500000 0.000000)
    (0.151250 1.500000 0.000000)
    (0.302500 1.500000 0.000000)
    (4.500000 1.500000 0.000000)
    (-1.500000 -1.500000 1.000000)
    (-0.302500 -1.500000 1.000000)
    (-0.151250 -1.500000 1.000000)
    (-0.120045 -1.500000 1.000000)
    (-0.108125 -1.500000 1.000000)
    (-0.089375 -1.500000 1.000000)
    (-0.077391 -1.500000 1.000000)
    (0.000000 -1.500000 1.000000)
    (0.077391 -1.500000 1.000000)
    (0.089375 -1.500000 1.000000)
    (0.108125 -1.500000 1.000000)
    (0.120045 -1.500000 1.000000)
    (0.151250 -1.500000 1.000000)
    (0.302500 -1.500000 1.000000)
    (4.500000 -1.500000 1.000000)
    (-1.500000 -0.062500 1.000000)
    (-0.302500 -0.062500 1.000000)
    (-0.151250 -0.062500 1.000000)
    (-0.120045 -0.062500 1.000000)
    (-0.108125 -0.062500 1.000000)
    (-0.089375 -0.062500 1.000000)
    (-0.077391 -0.062500 1.000000)
    (0.000000 -0.062500 1.000000)
    (0.077391 -0.062500 1.000000)
    (0.089375 -0.062500 1.000000)
    (0.108125 -0.062500 1.000000)
    (0.120045 -0.062500 1.000000)
    (0.151250 -0.062500 1.000000)
    (0.302500 -0.062500 1.000000)
    (4.500000 -0.062500 1.000000)
    (-1.500000 -0.012500 1.000000)
    (-0.302500 -0.012500 1.000000)
    (-0.151250 -0.012500 1.000000)
    (-0.120045 -0.012500 1.000000)
    (-0.108125 -0.012500 1.000000)
    (-0.089375 -0.012500 1.000000)
    (-0.077391 -0.012500 1.000000)
    (0.000000 -0.012500 1.000000)
    (0.077391 -0.012500 1.000000)
    (0.089375 -0.012500 1.000000)
    (0.108125 -0.012500 1.000000)
    (0.120045 -0.012500 1.000000)
    (0.151250 -0.012500 1.000000)
    (0.302500 -0.012500 1.000000)
    (4.500000 -0.012500 1.000000)
    (-1.500000 0.006350 1.000000)
    (-0.302500 0.006350 1.000000)
    (-0.151250 0.006350 1.000000)
    (-0.120045 0.006974 1.000000)
    (-0.110664 0.005273 1.000000)
    (-0.086766 0.005765 1.000000)
    (-0.077391 0.007827 1.000000)
    (0.000000 0.009375 1.000000)
    (0.077391 0.007827 1.000000)
    (0.086766 0.005765 1.000000)
    (0.110668 0.005287 1.000000)
    (0.120045 0.006974 1.000000)
    (0.151250 0.006350 1.000000)
    (0.302500 0.006350 1.000000)
    (4.500000 0.006350 1.000000)
    (-1.500000 0.009525 1.000000)
    (-0.302500 0.009525 1.000000)
    (-0.151250 0.009525 1.000000)
    (-0.148750 0.009525 1.000000)
    (0.000000 0.012500 1.000000)
    (0.148750 0.009525 1.000000)
    (0.151250 0.009525 1.000000)
    (0.302500 0.009525 1.000000)
    (4.500000 0.009525 1.000000)
    (-1.500000 0.062500 1.000000)
    (-0.302500 0.062500 1.000000)
    (-0.151250 0.062500 1.000000)
    (-0.148750 0.062500 1.000000)
    (0.000000 0.062500 1.000000)
    (0.148750 0.062500 1.000000)
    (0.151250 0.062500 1.000000)
    (0.302500 0.062500 1.000000)
    (4.500000 0.062500 1.000000)
    (-1.500000 1.500000 1.000000)
    (-0.302500 1.500000 1.000000)
    (-0.151250 1.500000 1.000000)
    (-0.148750 1.500000 1.000000)
    (0.000000 1.500000 1.000000)
    (0.148750 1.500000 1.000000)
    (0.151250 1.500000 1.000000)
    (0.302500 1.500000 1.000000)
    (4.500000 1.500000 1.000000)
);

blocks
(
    hex (0 1 15 16 87 88 102 103) (20 20 1) simpleGrading (1 1 1)
    hex (1 2 16 17 88 89 103 104) (20 20 1) simpleGrading (1 1 1)
    hex (2 3 17 18 89 90 104 105) (20 20 1) simpleGrading (1 1 1)
    hex (3 4 18 19 90 91 105 106) (20 20 1) simpleGrading (1 1 1)
    hex (4 5 19 20 91 92 106 107) (20 20 1) simpleGrading (1 1 1)
    hex (5 6 20 21 92 93 107 108) (20 20 1) simpleGrading (1 1 1)
    hex (6 7 21 22 93 94 108 109) (20 20 1) simpleGrading (1 1 1)
    hex (7 8 22 23 94 95 109 110) (20 20 1) simpleGrading (1 1 1)
    hex (8 9 23 24 95 96 110 111) (20 20 1) simpleGrading (1 1 1)
    hex (9 10 24 25 96 97 111 112) (20 20 1) simpleGrading (1 1 1)
    hex (10 11 25 26 97 98 112 113) (20 20 1) simpleGrading (1 1 1)
    hex (11 12 26 27 98 99 113 114) (20 20 1) simpleGrading (1 1 1)
    hex (12 13 27 28 99 100 114 115) (20 20 1) simpleGrading (1 1 1)
    hex (13 14 28 29 100 101 115 116) (20 20 1) simpleGrading (1 1 1)
    hex (15 16 30 31 102 103 117 118) (20 20 1) simpleGrading (1 1 1)
    hex (16 17 31 32 103 104 118 119) (20 20 1) simpleGrading (1 1 1)
    hex (17 18 32 33 104 105 119 120) (20 20 1) simpleGrading (1 1 1)
    hex (18 19 33 34 105 106 120 121) (20 20 1) simpleGrading (1 1 1)
    hex (19 20 34 35 106 107 121 122) (20 20 1) simpleGrading (1 1 1)
    hex (20 21 35 36 107 108 122 123) (20 20 1) simpleGrading (1 1 1)
    hex (21 22 36 37 108 109 123 124) (20 20 1) simpleGrading (1 1 1)
    hex (22 23 37 38 109 110 124 125) (20 20 1) simpleGrading (1 1 1)
    hex (23 24 38 39 110 111 125 126) (20 20 1) simpleGrading (1 1 1)
    hex (24 25 39 40 111 112 126 127) (20 20 1) simpleGrading (1 1 1)
    hex (25 26 40 41 112 113 127 128) (20 20 1) simpleGrading (1 1 1)
    hex (26 27 41 42 113 114 128 129) (20 20 1) simpleGrading (1 1 1)
    hex (27 28 42 43 114 115 129 130) (20 20 1) simpleGrading (1 1 1)
    hex (28 29 43 44 115 116 130 131) (20 20 1) simpleGrading (1 1 1)
    hex (30 31 45 46 117 118 132 133) (20 20 1) simpleGrading (1 1 1)
    hex (31 32 46 47 118 119 133 134) (20 20 1) simpleGrading (1 1 1)
    hex (32 33 47 48 119 120 134 135) (20 20 1) simpleGrading (1 1 1)
    hex (33 34 48 49 120 121 135 136) (20 20 1) simpleGrading (1 1 1)
    hex (35 36 50 51 122 123 137 138) (20 20 1) simpleGrading (1 1 1)
    hex (36 37 51 52 123 124 138 139) (20 20 1) simpleGrading (1 1 1)
    hex (37 38 52 53 124 125 139 140) (20 20 1) simpleGrading (1 1 1)
    hex (38 39 53 54 125 126 140 141) (20 20 1) simpleGrading (1 1 1)
    hex (40 41 55 56 127 128 142 143) (20 20 1) simpleGrading (1 1 1)
    hex (41 42 56 57 128 129 143 144) (20 20 1) simpleGrading (1 1 1)
    hex (42 43 57 58 129 130 144 145) (20 20 1) simpleGrading (1 1 1)
    hex (43 44 58 59 130 131 145 146) (20 20 1) simpleGrading (1 1 1)
    hex (45 46 60 61 132 133 147 148) (20 20 1) simpleGrading (1 1 1)
    hex (46 47 61 62 133 134 148 149) (20 20 1) simpleGrading (1 1 1)
    hex (57 58 66 67 144 145 153 154) (20 20 1) simpleGrading (1 1 1)
    hex (58 59 67 68 145 146 154 155) (20 20 1) simpleGrading (1 1 1)
    hex (60 61 69 70 147 148 156 157) (20 20 1) simpleGrading (1 1 1)
    hex (61 62 70 71 148 149 157 158) (20 20 1) simpleGrading (1 1 1)
    hex (62 63 71 72 149 150 158 159) (20 20 1) simpleGrading (1 1 1)
    hex (63 64 72 73 150 151 159 160) (20 20 1) simpleGrading (1 1 1)
    hex (64 65 73 74 151 152 160 161) (20 20 1) simpleGrading (1 1 1)
    hex (65 66 74 75 152 153 161 162) (20 20 1) simpleGrading (1 1 1)
    hex (66 67 75 76 153 154 162 163) (20 20 1) simpleGrading (1 1 1)
    hex (67 68 76 77 154 155 163 164) (20 20 1) simpleGrading (1 1 1)
    hex (69 70 78 79 156 157 165 166) (20 20 1) simpleGrading (1 1 1)
    hex (70 71 79 80 157 158 166 167) (20 20 1) simpleGrading (1 1 1)
    hex (71 72 80 81 158 159 167 168) (20 20 1) simpleGrading (1 1 1)
    hex (72 73 81 82 159 160 168 169) (20 20 1) simpleGrading (1 1 1)
    hex (73 74 82 83 160 161 169 170) (20 20 1) simpleGrading (1 1 1)
    hex (74 75 83 84 161 162 170 171) (20 20 1) simpleGrading (1 1 1)
    hex (75 76 84 85 162 163 171 172) (20 20 1) simpleGrading (1 1 1)
    hex (76 77 85 86 163 164 172 173) (20 20 1) simpleGrading (1 1 1)
);

edges
(
);

boundary
(
    top
    {
        type wall;
        faces
        (
            (165 166 79 78)
            (166 167 80 79)
            (167 168 81 80)
            (168 169 82 81)
            (169 170 83 82)
            (170 171 84 83)
            (171 172 85 84)
            (172 173 86 85)
        );
    }
    bottom
    {
        type wall;
        faces
        (
            (0 1 88 87)
            (1 2 89 88)
            (2 3 90 89)
            (3 4 91 90)
            (4 5 92 91)
            (5 6 93 92)
            (6 7 94 93)
            (7 8 95 94)
            (8 9 96 95)
            (9 10 97 96)
            (10 11 98 97)
            (11 12 99 98)
            (12 13 100 99)
            (13 14 101 100)
        );
    }
    inlet
    {
        type wall;
        faces
        (
            (0 4 7 3)
        );
    }
    outlet
    {
        type wall;
        faces
        (
            (2 6 5 1)
        );
    }
    frontAndBack
    {
        type empty;
        faces
        (
            (0 3 2 1)
            (4 5 6 7)
        );
    }
);

mergePatchPairs
(
);

// ************************************************************************* //
