/*--------------------------------*- C++ -*----------------------------------*\
| =========                 |                                                 |
| \\      /  F ield         | OpenFOAM: The Open Source CFD Toolbox           |
|   \\  /    O peration     | Web:      https://www.OpenFOAM.org              |
|  \\    /   A nd           | Version:  8                                     |
|    \\/     M anipulation  |                                                 |
\*---------------------------------------------------------------------------*/
FoamFile
{
    version     2.0;
    format      ascii;
    class       dictionary;
    object      blockMeshDict;
}
// * * * * * * * * * * * * * * * * * * * * * * * * * * * * * * * * * * * * * //

convertToMeters 1;

vertices
(
(0.011378 0.000000 0)
(0.000000 0.000000 0)
(0.021636 0.000000 0)
(0.012788 0.002051 0)
(0.002035 0.002035 0)
(0.000000 0.011762 0)
(0.022563 0.002072 0)
(0.032087 0.000000 0)
(0.014480 0.004512 0)
(0.004477 0.004477 0)
(0.002055 0.013230 0)
(0.000000 0.022530 0)
(0.026661 0.015373 0)
(0.023674 0.004559 0)
(0.032599 0.002081 0)
(0.043414 0.000000 0)
(0.030834 0.018408 0)
(0.020330 0.015356 0)
(0.017650 0.010142 0)
(0.010233 0.010013 0)
(0.017981 0.020990 0)
(0.004521 0.014991 0)
(0.002090 0.023548 0)
(0.000000 0.033063 0)
(0.018294 0.025017 0)
(0.023268 0.020243 0)
(0.021180 0.023758 0)
(0.026502 0.020202 0)
(0.028800 0.021603 0)
(0.028800 0.023456 0)
(0.028800 0.025000 0)
(0.026282 0.009352 0)
(0.031986 0.014377 0)
(0.033212 0.004579 0)
(0.043546 0.002075 0)
(0.055523 0.000000 0)
(0.037283 0.017466 0)
(0.033927 0.021404 0)
(0.033927 0.023366 0)
(0.033927 0.025000 0)
(0.000000 0.044477 0)
(0.010898 0.017061 0)
(0.015407 0.024492 0)
(0.004598 0.024770 0)
(0.002125 0.033682 0)
(0.016573 0.028685 0)
(0.020331 0.027162 0)
(0.025000 0.025000 0)
(0.037524 0.009945 0)
(0.043704 0.004564 0)
(0.055294 0.002048 0)
(0.066937 0.000000 0)
(0.046270 0.017086 0)
(0.040850 0.021371 0)
(0.040850 0.023350 0)
(0.040850 0.025000 0)
(0.000000 0.056586 0)
(0.002169 0.044720 0)
(0.009563 0.027874 0)
(0.004675 0.034426 0)
(0.014739 0.033051 0)
(0.018751 0.031549 0)
(0.021544 0.028800 0)
(0.023429 0.028800 0)
(0.025000 0.028800 0)
(0.050335 0.010634 0)
(0.055019 0.004505 0)
(0.066352 0.002009 0)
(0.077470 0.000000 0)
(0.088238 0.000000 0)
(0.100000 0.000000 0)
(0.056026 0.017293 0)
(0.050000 0.021560 0)
(0.050000 0.023436 0)
(0.050000 0.025000 0)
(0.000000 0.088622 0)
(0.000000 0.100000 0)
(0.000000 0.067913 0)
(0.000000 0.078364 0)
(0.002190 0.056447 0)
(0.004771 0.045011 0)
(0.010105 0.038220 0)
(0.017199 0.037339 0)
(0.021335 0.033927 0)
(0.023334 0.033927 0)
(0.025000 0.033927 0)
(0.062326 0.010607 0)
(0.065649 0.004419 0)
(0.076484 0.002024 0)
(0.086718 0.002128 0)
(0.097740 0.002260 0)
(0.100000 0.011378 0)
(0.068754 0.015278 0)
(0.063745 0.017716 0)
(0.059150 0.021871 0)
(0.059150 0.023578 0)
(0.059150 0.025000 0)
(0.002150 0.087144 0)
(0.002183 0.097817 0)
(0.011762 0.100000 0)
(0.002172 0.067379 0)
(0.002147 0.077404 0)
(0.004819 0.056279 0)
(0.010096 0.049849 0)
(0.017315 0.046761 0)
(0.021314 0.040850 0)
(0.023324 0.040850 0)
(0.025000 0.040850 0)
(0.073585 0.014915 0)
(0.072246 0.009200 0)
(0.075302 0.004452 0)
(0.077073 0.013644 0)
(0.084894 0.004683 0)
(0.095029 0.004971 0)
(0.097675 0.012977 0)
(0.100000 0.021636 0)
(0.072886 0.018393 0)
(0.069494 0.019776 0)
(0.066073 0.022153 0)
(0.075384 0.020481 0)
(0.066073 0.023706 0)
(0.066073 0.025000 0)
(0.004729 0.085370 0)
(0.004803 0.095197 0)
(0.013344 0.097786 0)
(0.022530 0.100000 0)
(0.004778 0.066739 0)
(0.004723 0.076252 0)
(0.010799 0.062618 0)
(0.017909 0.056547 0)
(0.021501 0.050000 0)
(0.023410 0.050000 0)
(0.025000 0.050000 0)
(0.076965 0.018060 0)
(0.077708 0.021032 0)
(0.081706 0.009326 0)
(0.081369 0.016441 0)
(0.089768 0.010105 0)
(0.094884 0.014896 0)
(0.097670 0.022678 0)
(0.100000 0.032087 0)
(0.073665 0.021494 0)
(0.078835 0.023438 0)
(0.071200 0.022272 0)
(0.076086 0.022290 0)
(0.071200 0.023760 0)
(0.071200 0.025000 0)
(0.010958 0.082440 0)
(0.009987 0.089644 0)
(0.015242 0.095128 0)
(0.023619 0.097764 0)
(0.033063 0.100000 0)
(0.009603 0.072943 0)
(0.015020 0.067625 0)
(0.018413 0.063853 0)
(0.021811 0.059150 0)
(0.017962 0.082586 0)
(0.015853 0.077708 0)
(0.023550 0.059150 0)
(0.025000 0.059150 0)
(0.100000 0.043414 0)
(0.081711 0.020708 0)
(0.088906 0.016525 0)
(0.082633 0.024829 0)
(0.094875 0.023928 0)
(0.097681 0.032657 0)
(0.083654 0.027732 0)
(0.079872 0.026771 0)
(0.075000 0.025000 0)
(0.044477 0.100000 0)
(0.017877 0.089421 0)
(0.022737 0.084448 0)
(0.024926 0.095081 0)
(0.033722 0.097739 0)
(0.016611 0.072765 0)
(0.027822 0.083564 0)
(0.019188 0.069179 0)
(0.022094 0.066073 0)
(0.024606 0.080643 0)
(0.020995 0.079332 0)
(0.019246 0.075842 0)
(0.023679 0.066073 0)
(0.025000 0.066073 0)
(0.100000 0.100000 0)
(0.100000 0.055523 0)
(0.097661 0.043563 0)
(0.089145 0.025668 0)
(0.094898 0.033340 0)
(0.084707 0.031887 0)
(0.081062 0.030896 0)
(0.078186 0.028800 0)
(0.076448 0.028800 0)
(0.075000 0.028800 0)
(0.056586 0.100000 0)
(0.044730 0.097736 0)
(0.027757 0.090239 0)
(0.034513 0.095027 0)
(0.032651 0.084979 0)
(0.030186 0.080684 0)
(0.020760 0.073290 0)
(0.026344 0.078921 0)
(0.022212 0.071200 0)
(0.023990 0.077945 0)
(0.022362 0.076232 0)
(0.023733 0.071200 0)
(0.025000 0.071200 0)
(0.028800 0.078155 0)
(0.088622 0.100000 0)
(0.100000 0.066937 0)
(0.067913 0.100000 0)
(0.078364 0.100000 0)
(0.097835 0.097835 0)
(0.100000 0.088238 0)
(0.100000 0.077470 0)
(0.097643 0.055259 0)
(0.094854 0.043741 0)
(0.089291 0.037138 0)
(0.082285 0.036868 0)
(0.078455 0.033927 0)
(0.076570 0.033927 0)
(0.075000 0.033927 0)
(0.056444 0.097772 0)
(0.045034 0.095019 0)
(0.038610 0.089683 0)
(0.037159 0.082426 0)
(0.033927 0.078383 0)
(0.025000 0.075000 0)
(0.028800 0.076434 0)
(0.087152 0.097863 0)
(0.097687 0.066263 0)
(0.067380 0.097832 0)
(0.077410 0.097866 0)
(0.095236 0.095236 0)
(0.097806 0.086671 0)
(0.097753 0.076376 0)
(0.094814 0.054943 0)
(0.088895 0.050048 0)
(0.082537 0.045977 0)
(0.078565 0.040850 0)
(0.076620 0.040850 0)
(0.075000 0.040850 0)
(0.056274 0.095097 0)
(0.050551 0.089199 0)
(0.046618 0.082509 0)
(0.040850 0.078432 0)
(0.033927 0.076538 0)
(0.028800 0.075000 0)
(0.085388 0.095298 0)
(0.094912 0.065453 0)
(0.066741 0.095229 0)
(0.076264 0.095304 0)
(0.089280 0.089521 0)
(0.095174 0.084791 0)
(0.095057 0.075063 0)
(0.089020 0.061531 0)
(0.083353 0.055109 0)
(0.078527 0.050000 0)
(0.076603 0.050000 0)
(0.075000 0.050000 0)
(0.062985 0.089265 0)
(0.056663 0.081905 0)
(0.050000 0.078277 0)
(0.040850 0.076560 0)
(0.033927 0.075000 0)
(0.081972 0.089388 0)
(0.089899 0.071342 0)
(0.073250 0.090154 0)
(0.088472 0.082550 0)
(0.084979 0.075578 0)
(0.084569 0.067052 0)
(0.082053 0.063454 0)
(0.078405 0.059150 0)
(0.076548 0.059150 0)
(0.075000 0.059150 0)
(0.068238 0.084675 0)
(0.063737 0.081524 0)
(0.059150 0.078016 0)
(0.050000 0.076489 0)
(0.040850 0.075000 0)
(0.079187 0.083748 0)
(0.083351 0.071784 0)
(0.073271 0.082811 0)
(0.081620 0.078494 0)
(0.081432 0.074957 0)
(0.080330 0.069347 0)
(0.078284 0.066073 0)
(0.076493 0.066073 0)
(0.075000 0.066073 0)
(0.069364 0.080455 0)
(0.066073 0.077799 0)
(0.059150 0.076371 0)
(0.050000 0.075000 0)
(0.076539 0.079091 0)
(0.079360 0.072854 0)
(0.073055 0.078990 0)
(0.077849 0.076075 0)
(0.078079 0.071200 0)
(0.076399 0.071200 0)
(0.075000 0.071200 0)
(0.071200 0.077727 0)
(0.066073 0.076272 0)
(0.059150 0.075000 0)
(0.075000 0.075000 0)
(0.071200 0.076239 0)
(0.066073 0.075000 0)
(0.071200 0.075000 0)
(0.011378 0.000000 1)
(0.000000 0.000000 1)
(0.021636 0.000000 1)
(0.012788 0.002051 1)
(0.002035 0.002035 1)
(0.000000 0.011762 1)
(0.022563 0.002072 1)
(0.032087 0.000000 1)
(0.014480 0.004512 1)
(0.004477 0.004477 1)
(0.002055 0.013230 1)
(0.000000 0.022530 1)
(0.026661 0.015373 1)
(0.023674 0.004559 1)
(0.032599 0.002081 1)
(0.043414 0.000000 1)
(0.030834 0.018408 1)
(0.020330 0.015356 1)
(0.017650 0.010142 1)
(0.010233 0.010013 1)
(0.017981 0.020990 1)
(0.004521 0.014991 1)
(0.002090 0.023548 1)
(0.000000 0.033063 1)
(0.018294 0.025017 1)
(0.023268 0.020243 1)
(0.021180 0.023758 1)
(0.026502 0.020202 1)
(0.028800 0.021603 1)
(0.028800 0.023456 1)
(0.028800 0.025000 1)
(0.026282 0.009352 1)
(0.031986 0.014377 1)
(0.033212 0.004579 1)
(0.043546 0.002075 1)
(0.055523 0.000000 1)
(0.037283 0.017466 1)
(0.033927 0.021404 1)
(0.033927 0.023366 1)
(0.033927 0.025000 1)
(0.000000 0.044477 1)
(0.010898 0.017061 1)
(0.015407 0.024492 1)
(0.004598 0.024770 1)
(0.002125 0.033682 1)
(0.016573 0.028685 1)
(0.020331 0.027162 1)
(0.025000 0.025000 1)
(0.037524 0.009945 1)
(0.043704 0.004564 1)
(0.055294 0.002048 1)
(0.066937 0.000000 1)
(0.046270 0.017086 1)
(0.040850 0.021371 1)
(0.040850 0.023350 1)
(0.040850 0.025000 1)
(0.000000 0.056586 1)
(0.002169 0.044720 1)
(0.009563 0.027874 1)
(0.004675 0.034426 1)
(0.014739 0.033051 1)
(0.018751 0.031549 1)
(0.021544 0.028800 1)
(0.023429 0.028800 1)
(0.025000 0.028800 1)
(0.050335 0.010634 1)
(0.055019 0.004505 1)
(0.066352 0.002009 1)
(0.077470 0.000000 1)
(0.088238 0.000000 1)
(0.100000 0.000000 1)
(0.056026 0.017293 1)
(0.050000 0.021560 1)
(0.050000 0.023436 1)
(0.050000 0.025000 1)
(0.000000 0.088622 1)
(0.000000 0.100000 1)
(0.000000 0.067913 1)
(0.000000 0.078364 1)
(0.002190 0.056447 1)
(0.004771 0.045011 1)
(0.010105 0.038220 1)
(0.017199 0.037339 1)
(0.021335 0.033927 1)
(0.023334 0.033927 1)
(0.025000 0.033927 1)
(0.062326 0.010607 1)
(0.065649 0.004419 1)
(0.076484 0.002024 1)
(0.086718 0.002128 1)
(0.097740 0.002260 1)
(0.100000 0.011378 1)
(0.068754 0.015278 1)
(0.063745 0.017716 1)
(0.059150 0.021871 1)
(0.059150 0.023578 1)
(0.059150 0.025000 1)
(0.002150 0.087144 1)
(0.002183 0.097817 1)
(0.011762 0.100000 1)
(0.002172 0.067379 1)
(0.002147 0.077404 1)
(0.004819 0.056279 1)
(0.010096 0.049849 1)
(0.017315 0.046761 1)
(0.021314 0.040850 1)
(0.023324 0.040850 1)
(0.025000 0.040850 1)
(0.073585 0.014915 1)
(0.072246 0.009200 1)
(0.075302 0.004452 1)
(0.077073 0.013644 1)
(0.084894 0.004683 1)
(0.095029 0.004971 1)
(0.097675 0.012977 1)
(0.100000 0.021636 1)
(0.072886 0.018393 1)
(0.069494 0.019776 1)
(0.066073 0.022153 1)
(0.075384 0.020481 1)
(0.066073 0.023706 1)
(0.066073 0.025000 1)
(0.004729 0.085370 1)
(0.004803 0.095197 1)
(0.013344 0.097786 1)
(0.022530 0.100000 1)
(0.004778 0.066739 1)
(0.004723 0.076252 1)
(0.010799 0.062618 1)
(0.017909 0.056547 1)
(0.021501 0.050000 1)
(0.023410 0.050000 1)
(0.025000 0.050000 1)
(0.076965 0.018060 1)
(0.077708 0.021032 1)
(0.081706 0.009326 1)
(0.081369 0.016441 1)
(0.089768 0.010105 1)
(0.094884 0.014896 1)
(0.097670 0.022678 1)
(0.100000 0.032087 1)
(0.073665 0.021494 1)
(0.078835 0.023438 1)
(0.071200 0.022272 1)
(0.076086 0.022290 1)
(0.071200 0.023760 1)
(0.071200 0.025000 1)
(0.010958 0.082440 1)
(0.009987 0.089644 1)
(0.015242 0.095128 1)
(0.023619 0.097764 1)
(0.033063 0.100000 1)
(0.009603 0.072943 1)
(0.015020 0.067625 1)
(0.018413 0.063853 1)
(0.021811 0.059150 1)
(0.017962 0.082586 1)
(0.015853 0.077708 1)
(0.023550 0.059150 1)
(0.025000 0.059150 1)
(0.100000 0.043414 1)
(0.081711 0.020708 1)
(0.088906 0.016525 1)
(0.082633 0.024829 1)
(0.094875 0.023928 1)
(0.097681 0.032657 1)
(0.083654 0.027732 1)
(0.079872 0.026771 1)
(0.075000 0.025000 1)
(0.044477 0.100000 1)
(0.017877 0.089421 1)
(0.022737 0.084448 1)
(0.024926 0.095081 1)
(0.033722 0.097739 1)
(0.016611 0.072765 1)
(0.027822 0.083564 1)
(0.019188 0.069179 1)
(0.022094 0.066073 1)
(0.024606 0.080643 1)
(0.020995 0.079332 1)
(0.019246 0.075842 1)
(0.023679 0.066073 1)
(0.025000 0.066073 1)
(0.100000 0.100000 1)
(0.100000 0.055523 1)
(0.097661 0.043563 1)
(0.089145 0.025668 1)
(0.094898 0.033340 1)
(0.084707 0.031887 1)
(0.081062 0.030896 1)
(0.078186 0.028800 1)
(0.076448 0.028800 1)
(0.075000 0.028800 1)
(0.056586 0.100000 1)
(0.044730 0.097736 1)
(0.027757 0.090239 1)
(0.034513 0.095027 1)
(0.032651 0.084979 1)
(0.030186 0.080684 1)
(0.020760 0.073290 1)
(0.026344 0.078921 1)
(0.022212 0.071200 1)
(0.023990 0.077945 1)
(0.022362 0.076232 1)
(0.023733 0.071200 1)
(0.025000 0.071200 1)
(0.028800 0.078155 1)
(0.088622 0.100000 1)
(0.100000 0.066937 1)
(0.067913 0.100000 1)
(0.078364 0.100000 1)
(0.097835 0.097835 1)
(0.100000 0.088238 1)
(0.100000 0.077470 1)
(0.097643 0.055259 1)
(0.094854 0.043741 1)
(0.089291 0.037138 1)
(0.082285 0.036868 1)
(0.078455 0.033927 1)
(0.076570 0.033927 1)
(0.075000 0.033927 1)
(0.056444 0.097772 1)
(0.045034 0.095019 1)
(0.038610 0.089683 1)
(0.037159 0.082426 1)
(0.033927 0.078383 1)
(0.025000 0.075000 1)
(0.028800 0.076434 1)
(0.087152 0.097863 1)
(0.097687 0.066263 1)
(0.067380 0.097832 1)
(0.077410 0.097866 1)
(0.095236 0.095236 1)
(0.097806 0.086671 1)
(0.097753 0.076376 1)
(0.094814 0.054943 1)
(0.088895 0.050048 1)
(0.082537 0.045977 1)
(0.078565 0.040850 1)
(0.076620 0.040850 1)
(0.075000 0.040850 1)
(0.056274 0.095097 1)
(0.050551 0.089199 1)
(0.046618 0.082509 1)
(0.040850 0.078432 1)
(0.033927 0.076538 1)
(0.028800 0.075000 1)
(0.085388 0.095298 1)
(0.094912 0.065453 1)
(0.066741 0.095229 1)
(0.076264 0.095304 1)
(0.089280 0.089521 1)
(0.095174 0.084791 1)
(0.095057 0.075063 1)
(0.089020 0.061531 1)
(0.083353 0.055109 1)
(0.078527 0.050000 1)
(0.076603 0.050000 1)
(0.075000 0.050000 1)
(0.062985 0.089265 1)
(0.056663 0.081905 1)
(0.050000 0.078277 1)
(0.040850 0.076560 1)
(0.033927 0.075000 1)
(0.081972 0.089388 1)
(0.089899 0.071342 1)
(0.073250 0.090154 1)
(0.088472 0.082550 1)
(0.084979 0.075578 1)
(0.084569 0.067052 1)
(0.082053 0.063454 1)
(0.078405 0.059150 1)
(0.076548 0.059150 1)
(0.075000 0.059150 1)
(0.068238 0.084675 1)
(0.063737 0.081524 1)
(0.059150 0.078016 1)
(0.050000 0.076489 1)
(0.040850 0.075000 1)
(0.079187 0.083748 1)
(0.083351 0.071784 1)
(0.073271 0.082811 1)
(0.081620 0.078494 1)
(0.081432 0.074957 1)
(0.080330 0.069347 1)
(0.078284 0.066073 1)
(0.076493 0.066073 1)
(0.075000 0.066073 1)
(0.069364 0.080455 1)
(0.066073 0.077799 1)
(0.059150 0.076371 1)
(0.050000 0.075000 1)
(0.076539 0.079091 1)
(0.079360 0.072854 1)
(0.073055 0.078990 1)
(0.077849 0.076075 1)
(0.078079 0.071200 1)
(0.076399 0.071200 1)
(0.075000 0.071200 1)
(0.071200 0.077727 1)
(0.066073 0.076272 1)
(0.059150 0.075000 1)
(0.075000 0.075000 1)
(0.071200 0.076239 1)
(0.066073 0.075000 1)
(0.071200 0.075000 1)
);

blocks
(
    hex (4 310 307 1 3 309 306 0) (1 1 1) simpleGrading (1 1 1)
    hex (3 309 306 0 6 312 308 2) (1 1 1) simpleGrading (1 1 1)
    hex (9 315 310 4 8 314 309 3) (1 1 1) simpleGrading (1 1 1)
    hex (4 310 316 10 1 307 311 5) (1 1 1) simpleGrading (1 1 1)
    hex (8 314 309 3 13 319 312 6) (1 1 1) simpleGrading (1 1 1)
    hex (6 312 308 2 14 320 313 7) (1 1 1) simpleGrading (1 1 1)
    hex (9 315 327 21 4 310 316 10) (1 1 1) simpleGrading (1 1 1)
    hex (10 316 328 22 5 311 317 11) (1 1 1) simpleGrading (1 1 1)
    hex (13 319 312 6 33 339 320 14) (1 1 1) simpleGrading (1 1 1)
    hex (14 320 313 7 34 340 321 15) (1 1 1) simpleGrading (1 1 1)
    hex (28 334 343 37 29 335 344 38) (1 1 1) simpleGrading (1 1 1)
    hex (29 335 344 38 30 336 345 39) (1 1 1) simpleGrading (1 1 1)
    hex (21 327 349 43 10 316 328 22) (1 1 1) simpleGrading (1 1 1)
    hex (22 328 350 44 11 317 329 23) (1 1 1) simpleGrading (1 1 1)
    hex (33 339 320 14 49 355 340 34) (1 1 1) simpleGrading (1 1 1)
    hex (50 356 340 34 35 341 321 15) (1 1 1) simpleGrading (1 1 1)
    hex (37 343 359 53 38 344 360 54) (1 1 1) simpleGrading (1 1 1)
    hex (38 344 360 54 39 345 361 55) (1 1 1) simpleGrading (1 1 1)
    hex (44 350 363 57 23 329 346 40) (1 1 1) simpleGrading (1 1 1)
    hex (43 349 365 59 22 328 350 44) (1 1 1) simpleGrading (1 1 1)
    hex (66 372 355 49 50 356 340 34) (1 1 1) simpleGrading (1 1 1)
    hex (67 373 356 50 51 357 341 35) (1 1 1) simpleGrading (1 1 1)
    hex (72 378 379 73 53 359 360 54) (1 1 1) simpleGrading (1 1 1)
    hex (73 379 380 74 54 360 361 55) (1 1 1) simpleGrading (1 1 1)
    hex (57 363 385 79 40 346 362 56) (1 1 1) simpleGrading (1 1 1)
    hex (59 365 386 80 44 350 363 57) (1 1 1) simpleGrading (1 1 1)
    hex (62 368 369 63 83 389 390 84) (1 1 1) simpleGrading (1 1 1)
    hex (63 369 370 64 84 390 391 85) (1 1 1) simpleGrading (1 1 1)
    hex (87 393 372 66 67 373 356 50) (1 1 1) simpleGrading (1 1 1)
    hex (88 394 373 67 68 374 357 51) (1 1 1) simpleGrading (1 1 1)
    hex (89 395 394 88 69 375 374 68) (1 1 1) simpleGrading (1 1 1)
    hex (90 396 395 89 70 376 375 69) (1 1 1) simpleGrading (1 1 1)
    hex (94 400 401 95 72 378 379 73) (1 1 1) simpleGrading (1 1 1)
    hex (95 401 402 96 73 379 380 74) (1 1 1) simpleGrading (1 1 1)
    hex (98 404 382 76 97 403 381 75) (1 1 1) simpleGrading (1 1 1)
    hex (100 406 383 77 79 385 362 56) (1 1 1) simpleGrading (1 1 1)
    hex (101 407 384 78 100 406 383 77) (1 1 1) simpleGrading (1 1 1)
    hex (97 403 381 75 101 407 384 78) (1 1 1) simpleGrading (1 1 1)
    hex (80 386 408 102 57 363 385 79) (1 1 1) simpleGrading (1 1 1)
    hex (83 389 390 84 105 411 412 106) (1 1 1) simpleGrading (1 1 1)
    hex (84 390 391 85 106 412 413 107) (1 1 1) simpleGrading (1 1 1)
    hex (110 416 393 87 88 394 373 67) (1 1 1) simpleGrading (1 1 1)
    hex (112 418 416 110 89 395 394 88) (1 1 1) simpleGrading (1 1 1)
    hex (113 419 418 112 90 396 395 89) (1 1 1) simpleGrading (1 1 1)
    hex (90 396 376 70 114 420 397 91) (1 1 1) simpleGrading (1 1 1)
    hex (118 424 426 120 94 400 401 95) (1 1 1) simpleGrading (1 1 1)
    hex (120 426 427 121 95 401 402 96) (1 1 1) simpleGrading (1 1 1)
    hex (123 429 404 98 122 428 403 97) (1 1 1) simpleGrading (1 1 1)
    hex (98 404 430 124 76 382 405 99) (1 1 1) simpleGrading (1 1 1)
    hex (126 432 406 100 102 408 385 79) (1 1 1) simpleGrading (1 1 1)
    hex (127 433 407 101 126 432 406 100) (1 1 1) simpleGrading (1 1 1)
    hex (122 428 403 97 127 433 407 101) (1 1 1) simpleGrading (1 1 1)
    hex (130 436 411 105 131 437 412 106) (1 1 1) simpleGrading (1 1 1)
    hex (131 437 412 106 132 438 413 107) (1 1 1) simpleGrading (1 1 1)
    hex (113 419 396 90 138 444 420 114) (1 1 1) simpleGrading (1 1 1)
    hex (114 420 397 91 139 445 421 115) (1 1 1) simpleGrading (1 1 1)
    hex (143 449 451 145 118 424 426 120) (1 1 1) simpleGrading (1 1 1)
    hex (145 451 452 146 120 426 427 121) (1 1 1) simpleGrading (1 1 1)
    hex (123 429 455 149 98 404 430 124) (1 1 1) simpleGrading (1 1 1)
    hex (124 430 456 150 99 405 431 125) (1 1 1) simpleGrading (1 1 1)
    hex (155 461 436 130 158 464 437 131) (1 1 1) simpleGrading (1 1 1)
    hex (158 464 437 131 159 465 438 132) (1 1 1) simpleGrading (1 1 1)
    hex (138 444 420 114 164 470 445 139) (1 1 1) simpleGrading (1 1 1)
    hex (139 445 421 115 165 471 446 140) (1 1 1) simpleGrading (1 1 1)
    hex (149 455 478 172 124 430 456 150) (1 1 1) simpleGrading (1 1 1)
    hex (150 456 479 173 125 431 457 151) (1 1 1) simpleGrading (1 1 1)
    hex (177 483 461 155 181 487 464 158) (1 1 1) simpleGrading (1 1 1)
    hex (181 487 464 158 182 488 465 159) (1 1 1) simpleGrading (1 1 1)
    hex (165 471 446 140 185 491 466 160) (1 1 1) simpleGrading (1 1 1)
    hex (164 470 445 139 187 493 471 165) (1 1 1) simpleGrading (1 1 1)
    hex (173 479 500 194 151 457 475 169) (1 1 1) simpleGrading (1 1 1)
    hex (172 478 502 196 150 456 479 173) (1 1 1) simpleGrading (1 1 1)
    hex (201 507 483 177 204 510 487 181) (1 1 1) simpleGrading (1 1 1)
    hex (204 510 487 181 205 511 488 182) (1 1 1) simpleGrading (1 1 1)
    hex (214 520 491 185 184 490 466 160) (1 1 1) simpleGrading (1 1 1)
    hex (187 493 471 165 215 521 491 185) (1 1 1) simpleGrading (1 1 1)
    hex (190 496 524 218 191 497 525 219) (1 1 1) simpleGrading (1 1 1)
    hex (191 497 525 219 192 498 526 220) (1 1 1) simpleGrading (1 1 1)
    hex (194 500 527 221 169 475 499 193) (1 1 1) simpleGrading (1 1 1)
    hex (196 502 528 222 173 479 500 194) (1 1 1) simpleGrading (1 1 1)
    hex (211 517 489 183 228 534 513 207) (1 1 1) simpleGrading (1 1 1)
    hex (229 535 520 214 208 514 490 184) (1 1 1) simpleGrading (1 1 1)
    hex (230 536 515 209 221 527 499 193) (1 1 1) simpleGrading (1 1 1)
    hex (231 537 516 210 230 536 515 209) (1 1 1) simpleGrading (1 1 1)
    hex (228 534 513 207 231 537 516 210) (1 1 1) simpleGrading (1 1 1)
    hex (211 517 539 233 183 489 518 212) (1 1 1) simpleGrading (1 1 1)
    hex (233 539 540 234 212 518 519 213) (1 1 1) simpleGrading (1 1 1)
    hex (234 540 535 229 213 519 514 208) (1 1 1) simpleGrading (1 1 1)
    hex (235 541 521 215 214 520 491 185) (1 1 1) simpleGrading (1 1 1)
    hex (218 524 544 238 219 525 545 239) (1 1 1) simpleGrading (1 1 1)
    hex (219 525 545 239 220 526 546 240) (1 1 1) simpleGrading (1 1 1)
    hex (222 528 547 241 194 500 527 221) (1 1 1) simpleGrading (1 1 1)
    hex (206 512 533 227 225 531 551 245) (1 1 1) simpleGrading (1 1 1)
    hex (232 538 517 211 247 553 534 228) (1 1 1) simpleGrading (1 1 1)
    hex (248 554 541 235 229 535 520 214) (1 1 1) simpleGrading (1 1 1)
    hex (249 555 536 230 241 547 527 221) (1 1 1) simpleGrading (1 1 1)
    hex (250 556 537 231 249 555 536 230) (1 1 1) simpleGrading (1 1 1)
    hex (247 553 534 228 250 556 537 231) (1 1 1) simpleGrading (1 1 1)
    hex (232 538 558 252 211 517 539 233) (1 1 1) simpleGrading (1 1 1)
    hex (252 558 559 253 233 539 540 234) (1 1 1) simpleGrading (1 1 1)
    hex (253 559 554 248 234 540 535 229) (1 1 1) simpleGrading (1 1 1)
    hex (256 562 563 257 238 544 545 239) (1 1 1) simpleGrading (1 1 1)
    hex (257 563 564 258 239 545 546 240) (1 1 1) simpleGrading (1 1 1)
    hex (225 531 551 245 244 550 568 262) (1 1 1) simpleGrading (1 1 1)
    hex (227 533 552 246 245 551 569 263) (1 1 1) simpleGrading (1 1 1)
    hex (271 577 578 272 256 562 563 257) (1 1 1) simpleGrading (1 1 1)
    hex (272 578 579 273 257 563 564 258) (1 1 1) simpleGrading (1 1 1)
    hex (261 567 550 244 277 583 568 262) (1 1 1) simpleGrading (1 1 1)
    hex (245 551 569 263 262 568 584 278) (1 1 1) simpleGrading (1 1 1)
    hex (285 591 592 286 271 577 578 272) (1 1 1) simpleGrading (1 1 1)
    hex (286 592 593 287 272 578 579 273) (1 1 1) simpleGrading (1 1 1)
    hex (276 582 567 261 290 596 583 277) (1 1 1) simpleGrading (1 1 1)
    hex (277 583 568 262 291 597 584 278) (1 1 1) simpleGrading (1 1 1)
    hex (296 602 603 297 285 591 592 286) (1 1 1) simpleGrading (1 1 1)
    hex (297 603 604 298 286 592 593 287) (1 1 1) simpleGrading (1 1 1)
    hex (289 595 582 276 300 606 596 290) (1 1 1) simpleGrading (1 1 1)
    hex (290 596 583 277 301 607 597 291) (1 1 1) simpleGrading (1 1 1)
    hex (299 605 595 289 303 609 606 300) (1 1 1) simpleGrading (1 1 1)
    hex (300 606 596 290 304 610 607 301) (1 1 1) simpleGrading (1 1 1)
    hex (303 609 606 300 305 611 610 304) (1 1 1) simpleGrading (1 1 1)
    hex (18 324 314 8 13 319 319 13) (1 1 1) simpleGrading (1 1 1)
    hex (19 325 315 9 8 314 314 8) (1 1 1) simpleGrading (1 1 1)
    hex (8 314 324 18 19 325 325 19) (1 1 1) simpleGrading (1 1 1)
    hex (19 325 327 21 9 315 315 9) (1 1 1) simpleGrading (1 1 1)
    hex (25 331 326 20 17 323 323 17) (1 1 1) simpleGrading (1 1 1)
    hex (25 331 323 17 12 318 318 12) (1 1 1) simpleGrading (1 1 1)
    hex (24 330 326 20 26 332 332 26) (1 1 1) simpleGrading (1 1 1)
    hex (26 332 326 20 25 331 331 25) (1 1 1) simpleGrading (1 1 1)
    hex (27 333 331 25 12 318 318 12) (1 1 1) simpleGrading (1 1 1)
    hex (27 333 318 12 16 322 322 16) (1 1 1) simpleGrading (1 1 1)
    hex (28 334 333 27 16 322 322 16) (1 1 1) simpleGrading (1 1 1)
    hex (13 319 337 31 18 324 324 18) (1 1 1) simpleGrading (1 1 1)
    hex (17 323 324 18 31 337 337 31) (1 1 1) simpleGrading (1 1 1)
    hex (12 318 323 17 31 337 337 31) (1 1 1) simpleGrading (1 1 1)
    hex (16 322 318 12 32 338 338 32) (1 1 1) simpleGrading (1 1 1)
    hex (12 318 337 31 32 338 338 32) (1 1 1) simpleGrading (1 1 1)
    hex (31 337 319 13 33 339 339 33) (1 1 1) simpleGrading (1 1 1)
    hex (32 338 342 36 16 322 322 16) (1 1 1) simpleGrading (1 1 1)
    hex (16 322 343 37 28 334 334 28) (1 1 1) simpleGrading (1 1 1)
    hex (37 343 322 16 36 342 342 36) (1 1 1) simpleGrading (1 1 1)
    hex (41 347 327 21 19 325 325 19) (1 1 1) simpleGrading (1 1 1)
    hex (20 326 347 41 17 323 323 17) (1 1 1) simpleGrading (1 1 1)
    hex (19 325 324 18 41 347 347 41) (1 1 1) simpleGrading (1 1 1)
    hex (17 323 347 41 18 324 324 18) (1 1 1) simpleGrading (1 1 1)
    hex (20 326 348 42 41 347 347 41) (1 1 1) simpleGrading (1 1 1)
    hex (24 330 348 42 20 326 326 20) (1 1 1) simpleGrading (1 1 1)
    hex (21 327 347 41 43 349 349 43) (1 1 1) simpleGrading (1 1 1)
    hex (24 330 351 45 42 348 348 42) (1 1 1) simpleGrading (1 1 1)
    hex (24 330 332 26 46 352 352 46) (1 1 1) simpleGrading (1 1 1)
    hex (24 330 352 46 45 351 351 45) (1 1 1) simpleGrading (1 1 1)
    hex (26 332 353 47 46 352 352 46) (1 1 1) simpleGrading (1 1 1)
    hex (26 332 331 25 47 353 353 47) (1 1 1) simpleGrading (1 1 1)
    hex (27 333 353 47 25 331 331 25) (1 1 1) simpleGrading (1 1 1)
    hex (27 333 334 28 47 353 353 47) (1 1 1) simpleGrading (1 1 1)
    hex (30 336 353 47 29 335 335 29) (1 1 1) simpleGrading (1 1 1)
    hex (29 335 353 47 28 334 334 28) (1 1 1) simpleGrading (1 1 1)
    hex (33 339 354 48 31 337 337 31) (1 1 1) simpleGrading (1 1 1)
    hex (32 338 337 31 48 354 354 48) (1 1 1) simpleGrading (1 1 1)
    hex (32 338 354 48 36 342 342 36) (1 1 1) simpleGrading (1 1 1)
    hex (48 354 339 33 49 355 355 49) (1 1 1) simpleGrading (1 1 1)
    hex (36 342 354 48 52 358 358 52) (1 1 1) simpleGrading (1 1 1)
    hex (36 342 359 53 37 343 343 37) (1 1 1) simpleGrading (1 1 1)
    hex (53 359 342 36 52 358 358 52) (1 1 1) simpleGrading (1 1 1)
    hex (43 349 347 41 58 364 364 58) (1 1 1) simpleGrading (1 1 1)
    hex (42 348 364 58 41 347 347 41) (1 1 1) simpleGrading (1 1 1)
    hex (42 348 351 45 58 364 364 58) (1 1 1) simpleGrading (1 1 1)
    hex (58 364 365 59 43 349 349 43) (1 1 1) simpleGrading (1 1 1)
    hex (45 351 366 60 58 364 364 58) (1 1 1) simpleGrading (1 1 1)
    hex (45 351 352 46 61 367 367 61) (1 1 1) simpleGrading (1 1 1)
    hex (61 367 366 60 45 351 351 45) (1 1 1) simpleGrading (1 1 1)
    hex (62 368 352 46 47 353 353 47) (1 1 1) simpleGrading (1 1 1)
    hex (62 368 367 61 46 352 352 46) (1 1 1) simpleGrading (1 1 1)
    hex (63 369 368 62 47 353 353 47) (1 1 1) simpleGrading (1 1 1)
    hex (64 370 369 63 47 353 353 47) (1 1 1) simpleGrading (1 1 1)
    hex (49 355 371 65 48 354 354 48) (1 1 1) simpleGrading (1 1 1)
    hex (52 358 354 48 65 371 371 65) (1 1 1) simpleGrading (1 1 1)
    hex (65 371 355 49 66 372 372 66) (1 1 1) simpleGrading (1 1 1)
    hex (65 371 377 71 52 358 358 52) (1 1 1) simpleGrading (1 1 1)
    hex (52 358 378 72 53 359 359 53) (1 1 1) simpleGrading (1 1 1)
    hex (72 378 358 52 71 377 377 71) (1 1 1) simpleGrading (1 1 1)
    hex (59 365 364 58 81 387 387 81) (1 1 1) simpleGrading (1 1 1)
    hex (60 366 387 81 58 364 364 58) (1 1 1) simpleGrading (1 1 1)
    hex (81 387 386 80 59 365 365 59) (1 1 1) simpleGrading (1 1 1)
    hex (60 366 367 61 82 388 388 82) (1 1 1) simpleGrading (1 1 1)
    hex (60 366 388 82 81 387 387 81) (1 1 1) simpleGrading (1 1 1)
    hex (61 367 368 62 83 389 389 83) (1 1 1) simpleGrading (1 1 1)
    hex (83 389 388 82 61 367 367 61) (1 1 1) simpleGrading (1 1 1)
    hex (66 372 392 86 65 371 371 65) (1 1 1) simpleGrading (1 1 1)
    hex (71 377 371 65 86 392 392 86) (1 1 1) simpleGrading (1 1 1)
    hex (86 392 372 66 87 393 393 87) (1 1 1) simpleGrading (1 1 1)
    hex (93 399 377 71 86 392 392 86) (1 1 1) simpleGrading (1 1 1)
    hex (93 399 392 86 92 398 398 92) (1 1 1) simpleGrading (1 1 1)
    hex (71 377 400 94 72 378 378 72) (1 1 1) simpleGrading (1 1 1)
    hex (94 400 377 71 93 399 399 93) (1 1 1) simpleGrading (1 1 1)
    hex (80 386 387 81 103 409 409 103) (1 1 1) simpleGrading (1 1 1)
    hex (103 409 408 102 80 386 386 80) (1 1 1) simpleGrading (1 1 1)
    hex (82 388 410 104 81 387 387 81) (1 1 1) simpleGrading (1 1 1)
    hex (104 410 409 103 81 387 387 81) (1 1 1) simpleGrading (1 1 1)
    hex (82 388 389 83 105 411 411 105) (1 1 1) simpleGrading (1 1 1)
    hex (105 411 410 104 82 388 388 82) (1 1 1) simpleGrading (1 1 1)
    hex (87 393 415 109 86 392 392 86) (1 1 1) simpleGrading (1 1 1)
    hex (92 398 392 86 109 415 415 109) (1 1 1) simpleGrading (1 1 1)
    hex (108 414 398 92 109 415 415 109) (1 1 1) simpleGrading (1 1 1)
    hex (109 415 393 87 110 416 416 110) (1 1 1) simpleGrading (1 1 1)
    hex (108 414 415 109 111 417 417 111) (1 1 1) simpleGrading (1 1 1)
    hex (108 414 422 116 92 398 398 92) (1 1 1) simpleGrading (1 1 1)
    hex (92 398 423 117 93 399 399 93) (1 1 1) simpleGrading (1 1 1)
    hex (117 423 398 92 116 422 422 116) (1 1 1) simpleGrading (1 1 1)
    hex (93 399 424 118 94 400 400 94) (1 1 1) simpleGrading (1 1 1)
    hex (118 424 399 93 117 423 423 117) (1 1 1) simpleGrading (1 1 1)
    hex (102 408 409 103 128 434 434 128) (1 1 1) simpleGrading (1 1 1)
    hex (128 434 432 126 102 408 408 102) (1 1 1) simpleGrading (1 1 1)
    hex (104 410 435 129 103 409 409 103) (1 1 1) simpleGrading (1 1 1)
    hex (129 435 434 128 103 409 409 103) (1 1 1) simpleGrading (1 1 1)
    hex (104 410 411 105 130 436 436 130) (1 1 1) simpleGrading (1 1 1)
    hex (130 436 435 129 104 410 410 104) (1 1 1) simpleGrading (1 1 1)
    hex (119 425 422 116 133 439 439 133) (1 1 1) simpleGrading (1 1 1)
    hex (116 422 414 108 133 439 439 133) (1 1 1) simpleGrading (1 1 1)
    hex (111 417 439 133 108 414 414 108) (1 1 1) simpleGrading (1 1 1)
    hex (119 425 439 133 134 440 440 134) (1 1 1) simpleGrading (1 1 1)
    hex (135 441 416 110 112 418 418 112) (1 1 1) simpleGrading (1 1 1)
    hex (110 416 441 135 109 415 415 109) (1 1 1) simpleGrading (1 1 1)
    hex (111 417 415 109 135 441 441 135) (1 1 1) simpleGrading (1 1 1)
    hex (111 417 441 135 136 442 442 136) (1 1 1) simpleGrading (1 1 1)
    hex (133 439 417 111 136 442 442 136) (1 1 1) simpleGrading (1 1 1)
    hex (112 418 443 137 135 441 441 135) (1 1 1) simpleGrading (1 1 1)