/*--------------------------------*- C++ -*----------------------------------*\
| =========                 |                                                 |
| \\      /  F ield         | OpenFOAM: The Open Source CFD Toolbox           |
|   \\  /    O peration     | Web:      https://www.OpenFOAM.org              |
|  \\    /   A nd           | Version:  8                                     |
|    \\/     M anipulation  |                                                 |
\*---------------------------------------------------------------------------*/
FoamFile
{
    version     2.0;
    format      ascii;
    class       dictionary;
    object      blockMeshDict;
}
// * * * * * * * * * * * * * * * * * * * * * * * * * * * * * * * * * * * * * //

convertToMeters 1;

vertices
(
(0.008835 0.099347 0)
(0.008333 0.100000 0)
(0.001415 0.098585 0)
(0.002341 0.097659 0)
(0.009436 0.098564 0)
(0.017060 0.099328 0)
(0.000643 0.099357 0)
(0.000000 0.100000 0)
(0.016667 0.100000 0)
(0.001394 0.090865 0)
(0.002307 0.090340 0)
(0.003453 0.096547 0)
(0.010158 0.097624 0)
(0.017531 0.098521 0)
(0.025304 0.099295 0)
(0.000634 0.091302 0)
(0.000000 0.091667 0)
(0.033554 0.099254 0)
(0.025000 0.100000 0)
(0.002308 0.082722 0)
(0.001395 0.082964 0)
(0.003403 0.082431 0)
(0.003402 0.089710 0)
(0.004786 0.095214 0)
(0.011025 0.096496 0)
(0.018097 0.097554 0)
(0.025669 0.098449 0)
(0.033818 0.098359 0)
(0.000634 0.083165 0)
(0.000000 0.083333 0)
(0.041797 0.099224 0)
(0.033333 0.100000 0)
(0.041953 0.098292 0)
(0.050074 0.098272 0)
(0.003440 0.075011 0)
(0.002333 0.075008 0)
(0.001410 0.075005 0)
(0.004769 0.075016 0)
(0.004718 0.082083 0)
(0.004715 0.088954 0)
(0.006387 0.093613 0)
(0.012064 0.095143 0)
(0.018776 0.096392 0)
(0.026107 0.097435 0)
(0.034135 0.097285 0)
(0.000641 0.075002 0)
(0.000000 0.075000 0)
(0.058190 0.098299 0)
(0.050034 0.099214 0)
(0.041667 0.100000 0)
(0.042141 0.097174 0)
(0.050123 0.097141 0)
(0.058096 0.097185 0)
(0.066071 0.097275 0)
(0.003448 0.067603 0)
(0.002338 0.067301 0)
(0.001413 0.067050 0)
(0.004780 0.067964 0)
(0.006364 0.075021 0)
(0.006296 0.081664 0)
(0.006292 0.088046 0)
(0.009613 0.090273 0)
(0.013312 0.093519 0)
(0.019591 0.094999 0)
(0.026632 0.096217 0)
(0.034516 0.095997 0)
(0.000642 0.066841 0)
(0.000000 0.066667 0)
(0.074039 0.097376 0)
(0.066307 0.098353 0)
(0.058268 0.099227 0)
(0.050000 0.100000 0)
(0.042366 0.095833 0)
(0.073583 0.096130 0)
(0.050181 0.095783 0)
(0.057984 0.095848 0)
(0.065789 0.095981 0)
(0.004640 0.061026 0)
(0.003347 0.060276 0)
(0.002269 0.059650 0)
(0.001372 0.059129 0)
(0.006379 0.068398 0)
(0.006191 0.061926 0)
(0.009830 0.071118 0)
(0.009617 0.078290 0)
(0.010097 0.085636 0)
(0.015126 0.089661 0)
(0.020569 0.093326 0)
(0.027263 0.094755 0)
(0.034972 0.094450 0)
(0.014124 0.080418 0)
(0.000623 0.058695 0)
(0.000000 0.058333 0)
(0.081966 0.097450 0)
(0.074419 0.098414 0)
(0.066503 0.099251 0)
(0.058333 0.100000 0)
(0.081317 0.096240 0)
(0.088918 0.096290 0)
(0.094878 0.094878 0)
(0.042636 0.094223 0)
(0.073035 0.094635 0)
(0.050251 0.094154 0)
(0.057849 0.094245 0)
(0.065450 0.094429 0)
(0.005936 0.055936 0)
(0.004449 0.054449 0)
(0.003209 0.053209 0)
(0.002176 0.052176 0)
(0.001315 0.051315 0)
(0.010104 0.064565 0)
(0.009617 0.059419 0)
(0.015229 0.066896 0)
(0.014470 0.074199 0)
(0.017308 0.085047 0)
(0.022360 0.089253 0)
(0.028019 0.093002 0)
(0.035520 0.092595 0)
(0.019130 0.078917 0)
(0.000598 0.050598 0)
(0.000000 0.050000 0)
(0.096305 0.096305 0)
(0.089803 0.097484 0)
(0.082507 0.098459 0)
(0.074736 0.099279 0)
(0.066667 0.100000 0)
(0.080539 0.094788 0)
(0.087856 0.094857 0)
(0.093165 0.093165 0)
(0.094862 0.087720 0)
(0.042960 0.092291 0)
(0.072378 0.092841 0)
(0.050334 0.092200 0)
(0.057687 0.092320 0)
(0.065043 0.092566 0)
(0.012956 0.055741 0)
(0.011834 0.054303 0)
(0.010899 0.053104 0)
(0.010119 0.052105 0)
(0.009470 0.051272 0)
(0.014676 0.060083 0)
(0.020148 0.063040 0)
(0.022130 0.069711 0)
(0.025180 0.083451 0)
(0.030192 0.089296 0)
(0.038420 0.088874 0)
(0.027888 0.075851 0)
(0.008929 0.050578 0)
(0.008478 0.050000 0)
(0.096294 0.088820 0)
(0.097494 0.097494 0)
(0.090540 0.098479 0)
(0.082958 0.099300 0)
(0.075000 0.100000 0)
(0.079604 0.093045 0)
(0.086582 0.093137 0)
(0.089377 0.089548 0)
(0.093145 0.086401 0)
(0.094783 0.080282 0)
(0.077575 0.090164 0)
(0.047033 0.088383 0)
(0.070405 0.089970 0)
(0.055336 0.088813 0)
(0.062995 0.089444 0)
(0.020325 0.055583 0)
(0.019479 0.054184 0)
(0.018774 0.053018 0)
(0.018187 0.052046 0)
(0.017698 0.051237 0)
(0.022391 0.058375 0)
(0.027459 0.061990 0)
(0.031460 0.066442 0)
(0.035076 0.081703 0)
(0.043161 0.084195 0)
(0.036656 0.071890 0)
(0.017290 0.050562 0)
(0.016950 0.050000 0)
(0.096236 0.081132 0)
(0.097487 0.089736 0)
(0.098486 0.098486 0)
(0.091155 0.099309 0)
(0.083333 0.100000 0)
(0.094606 0.072673 0)
(0.083548 0.088670 0)
(0.088843 0.084700 0)
(0.093038 0.079262 0)
(0.078966 0.085128 0)
(0.073307 0.085193 0)
(0.052023 0.082106 0)
(0.066842 0.084714 0)
(0.060089 0.084729 0)
(0.027462 0.055401 0)
(0.026835 0.054047 0)
(0.026312 0.052920 0)
(0.025876 0.051980 0)
(0.025513 0.051197 0)
(0.029266 0.057651 0)
(0.033509 0.060865 0)
(0.038096 0.063636 0)
(0.044292 0.076390 0)
(0.052868 0.074118 0)
(0.043122 0.067316 0)
(0.025211 0.050544 0)
(0.024959 0.050000 0)
(0.096109 0.073321 0)
(0.097448 0.081841 0)
(0.098481 0.090500 0)
(0.099312 0.099312 0)
(0.091667 0.100000 0)
(0.094430 0.065022 0)
(0.092803 0.071895 0)
(0.083591 0.081613 0)
(0.089045 0.077354 0)
(0.077253 0.079511 0)
(0.070905 0.079368 0)
(0.061573 0.076923 0)
(0.033492 0.055053 0)
(0.033050 0.053787 0)
(0.032682 0.052732 0)
(0.032376 0.051852 0)
(0.032120 0.051120 0)
(0.035427 0.056967 0)
(0.039210 0.058568 0)
(0.042718 0.061389 0)
(0.049642 0.068341 0)
(0.056836 0.067591 0)
(0.047298 0.062475 0)
(0.031907 0.050509 0)
(0.031730 0.050000 0)
(0.095982 0.065480 0)
(0.097362 0.073862 0)
(0.098458 0.082431 0)
(0.099310 0.091136 0)
(0.100000 0.100000 0)
(0.094299 0.057377 0)
(0.092567 0.064472 0)
(0.089138 0.069494 0)
(0.083140 0.073843 0)
(0.059427 0.060109 0)
(0.075643 0.069631 0)
(0.064457 0.065238 0)
(0.038291 0.054475 0)
(0.038005 0.053353 0)
(0.037768 0.052419 0)
(0.037570 0.051640 0)
(0.037405 0.050991 0)
(0.045527 0.058896 0)
(0.040332 0.055919 0)
(0.042791 0.057557 0)
(0.053437 0.062157 0)
(0.055528 0.058159 0)
(0.047941 0.059012 0)
(0.050478 0.059614 0)
(0.057374 0.055656 0)
(0.058265 0.052074 0)
(0.037267 0.050451 0)
(0.037153 0.050000 0)
(0.094320 0.049756 0)
(0.095887 0.057643 0)
(0.097275 0.065862 0)
(0.098405 0.074312 0)
(0.099299 0.082923 0)
(0.100000 0.091667 0)
(0.058114 0.049288 0)
(0.092393 0.057057 0)
(0.089088 0.061639 0)
(0.061868 0.054383 0)
(0.061842 0.049414 0)
(0.083199 0.064914 0)
(0.067057 0.057935 0)
(0.075509 0.063564 0)
(0.092421 0.049675 0)
(0.042166 0.053878 0)
(0.041996 0.052906 0)
(0.041854 0.052096 0)
(0.041735 0.051422 0)
(0.041636 0.050859 0)
(0.047237 0.057038 0)
(0.045616 0.056158 0)
(0.043822 0.054786 0)
(0.052592 0.057881 0)
(0.054326 0.055999 0)
(0.049727 0.056700 0)
(0.054830 0.053209 0)
(0.055901 0.050617 0)
(0.056143 0.048253 0)
(0.041554 0.050391 0)
(0.041486 0.050000 0)
(0.094480 0.042131 0)
(0.095903 0.049824 0)
(0.097211 0.057865 0)
(0.098353 0.066180 0)
(0.099275 0.074687 0)
(0.100000 0.083333 0)
(0.055717 0.045969 0)
(0.054413 0.043966 0)
(0.053543 0.042211 0)
(0.058778 0.046329 0)
(0.062743 0.046233 0)
(0.089018 0.053341 0)
(0.084626 0.056545 0)
(0.067595 0.050537 0)
(0.077801 0.056647 0)
(0.092634 0.042287 0)
(0.088939 0.044844 0)
(0.052655 0.042029 0)
(0.045237 0.052655 0)
(0.045143 0.051800 0)
(0.045066 0.051088 0)
(0.047865 0.054862 0)
(0.046488 0.053838 0)
(0.052055 0.054655 0)
(0.049921 0.054224 0)
(0.052503 0.052533 0)
(0.053893 0.051335 0)
(0.054163 0.049543 0)
(0.054421 0.047782 0)
(0.045001 0.050495 0)
(0.044947 0.050000 0)
(0.052442 0.045274 0)
(0.053597 0.046639 0)
(0.094659 0.034500 0)
(0.096018 0.042002 0)
(0.097222 0.049881 0)
(0.098315 0.058050 0)
(0.099251 0.066446 0)
(0.100000 0.075000 0)
(0.057008 0.042918 0)
(0.055516 0.040297 0)
(0.054060 0.038301 0)
(0.092874 0.034890 0)
(0.060826 0.042773 0)
(0.065383 0.043664 0)
(0.082668 0.047908 0)
(0.073658 0.046118 0)
(0.089668 0.037031 0)
(0.085595 0.039493 0)
(0.053043 0.038013 0)
(0.051915 0.041878 0)
(0.051656 0.045169 0)
(0.047812 0.051924 0)
(0.048802 0.052892 0)
(0.050723 0.052511 0)
(0.052299 0.050788 0)
(0.052723 0.048797 0)
(0.047757 0.050874 0)
(0.047712 0.050000 0)
(0.051820 0.047834 0)
(0.093065 0.027540 0)
(0.094803 0.026903 0)
(0.096148 0.034175 0)
(0.097300 0.041894 0)
(0.098321 0.049928 0)
(0.099234 0.058205 0)
(0.100000 0.066667 0)
(0.058108 0.039287 0)
(0.056678 0.035185 0)
(0.054654 0.033463 0)
(0.090056 0.029613 0)
(0.063063 0.038252 0)
(0.069538 0.039705 0)
(0.078561 0.038334 0)
(0.084554 0.033407 0)
(0.053488 0.033028 0)
(0.052195 0.037774 0)
(0.051299 0.041752 0)
(0.051001 0.045081 0)
(0.050000 0.050000 0)
(0.050827 0.047767 0)
(0.090293 0.022361 0)
(0.093200 0.020313 0)
(0.093291 0.013304 0)
(0.094904 0.019399 0)
(0.096251 0.026373 0)
(0.097388 0.033904 0)
(0.098368 0.041804 0)
(0.099237 0.049967 0)
(0.100000 0.058333 0)
(0.061141 0.033362 0)
(0.057687 0.029162 0)
(0.055237 0.027469 0)
(0.085631 0.026781 0)
(0.068733 0.032531 0)
(0.077814 0.029190 0)
(0.053925 0.026840 0)
(0.052516 0.032667 0)
(0.051488 0.037574 0)
(0.050785 0.041646 0)
(0.050455 0.045008 0)
(0.050000 0.047712 0)
(0.085230 0.020475 0)
(0.088861 0.015730 0)
(0.090015 0.009855 0)
(0.093374 0.006626 0)
(0.094972 0.012059 0)
(0.096324 0.018638 0)
(0.097458 0.025931 0)
(0.098421 0.033678 0)
(0.099258 0.041729 0)
(0.100000 0.050000 0)
(0.062707 0.025796 0)
(0.058313 0.021343 0)
(0.055742 0.020462 0)
(0.079185 0.021623 0)
(0.069557 0.022123 0)
(0.056124 0.013254 0)
(0.054303 0.019582 0)
(0.052831 0.026316 0)
(0.051706 0.032365 0)
(0.050900 0.037407 0)
(0.050357 0.041559 0)
(0.050000 0.044947 0)
(0.082080 0.015693 0)
(0.084973 0.010544 0)
(0.087864 0.006552 0)
(0.095035 0.004965 0)
(0.096373 0.011020 0)
(0.097507 0.018003 0)
(0.098464 0.025563 0)
(0.099282 0.033490 0)
(0.100000 0.041667 0)
(0.063411 0.017395 0)
(0.059430 0.014849 0)
(0.074800 0.015475 0)
(0.068625 0.015164 0)
(0.059606 0.009373 0)
(0.056385 0.006385 0)
(0.054589 0.012057 0)
(0.053104 0.018848 0)
(0.051920 0.025879 0)
(0.051031 0.032114 0)
(0.050409 0.037268 0)
(0.050000 0.041486 0)
(0.078583 0.010243 0)
(0.081540 0.006607 0)
(0.088817 0.004910 0)
(0.096418 0.003582 0)
(0.097541 0.010155 0)
(0.098493 0.017474 0)
(0.099302 0.025256 0)
(0.100000 0.033333 0)
(0.064007 0.010665 0)
(0.071350 0.010164 0)
(0.062076 0.006505 0)
(0.054785 0.004785 0)
(0.053310 0.011060 0)
(0.052105 0.018237 0)
(0.051160 0.025515 0)
(0.050469 0.031904 0)
(0.050000 0.037153 0)
(0.074978 0.006616 0)
(0.081989 0.004951 0)
(0.089611 0.003542 0)
(0.097571 0.002429 0)
(0.098514 0.009435 0)
(0.099315 0.017034 0)
(0.100000 0.025000 0)
(0.068406 0.006561 0)
(0.061138 0.004875 0)
(0.053452 0.003452 0)
(0.052245 0.010229 0)
(0.051272 0.017728 0)
(0.050527 0.025211 0)
(0.050000 0.031730 0)
(0.074984 0.004958 0)
(0.082364 0.003572 0)
(0.090273 0.002402 0)
(0.098532 0.001468 0)
(0.099324 0.008834 0)
(0.100000 0.016667 0)
(0.067970 0.004917 0)
(0.060357 0.003517 0)
(0.052341 0.002341 0)
(0.051357 0.009536 0)
(0.050578 0.017304 0)
(0.050000 0.024959 0)
(0.074988 0.003577 0)
(0.082676 0.002422 0)
(0.090824 0.001452 0)
(0.099333 0.000667 0)
(0.100000 0.008333 0)
(0.067607 0.003547 0)
(0.059705 0.002385 0)
(0.051415 0.001415 0)
(0.050617 0.008959 0)
(0.050000 0.016950 0)
(0.074992 0.002425 0)
(0.082936 0.001464 0)
(0.091284 0.000660 0)
(0.100000 0.000000 0)
(0.067304 0.002405 0)
(0.059163 0.001441 0)
(0.050643 0.000643 0)
(0.050000 0.008478 0)
(0.074995 0.001466 0)
(0.083153 0.000665 0)
(0.091667 0.000000 0)
(0.067052 0.001454 0)
(0.058710 0.000655 0)
(0.050000 0.000000 0)
(0.074998 0.000666 0)
(0.083333 0.000000 0)
(0.066842 0.000661 0)
(0.058333 0.000000 0)
(0.075000 0.000000 0)
(0.066667 0.000000 0)
(0.008835 0.099347 1)
(0.008333 0.100000 1)
(0.001415 0.098585 1)
(0.002341 0.097659 1)
(0.009436 0.098564 1)
(0.017060 0.099328 1)
(0.000643 0.099357 1)
(0.000000 0.100000 1)
(0.016667 0.100000 1)
(0.001394 0.090865 1)
(0.002307 0.090340 1)
(0.003453 0.096547 1)
(0.010158 0.097624 1)
(0.017531 0.098521 1)
(0.025304 0.099295 1)
(0.000634 0.091302 1)
(0.000000 0.091667 1)
(0.033554 0.099254 1)
(0.025000 0.100000 1)
(0.002308 0.082722 1)
(0.001395 0.082964 1)
(0.003403 0.082431 1)
(0.003402 0.089710 1)
(0.004786 0.095214 1)
(0.011025 0.096496 1)
(0.018097 0.097554 1)
(0.025669 0.098449 1)
(0.033818 0.098359 1)
(0.000634 0.083165 1)
(0.000000 0.083333 1)
(0.041797 0.099224 1)
(0.033333 0.100000 1)
(0.041953 0.098292 1)
(0.050074 0.098272 1)
(0.003440 0.075011 1)
(0.002333 0.075008 1)
(0.001410 0.075005 1)
(0.004769 0.075016 1)
(0.004718 0.082083 1)
(0.004715 0.088954 1)
(0.006387 0.093613 1)
(0.012064 0.095143 1)
(0.018776 0.096392 1)
(0.026107 0.097435 1)
(0.034135 0.097285 1)
(0.000641 0.075002 1)
(0.000000 0.075000 1)
(0.058190 0.098299 1)
(0.050034 0.099214 1)
(0.041667 0.100000 1)
(0.042141 0.097174 1)
(0.050123 0.097141 1)
(0.058096 0.097185 1)
(0.066071 0.097275 1)
(0.003448 0.067603 1)
(0.002338 0.067301 1)
(0.001413 0.067050 1)
(0.004780 0.067964 1)
(0.006364 0.075021 1)
(0.006296 0.081664 1)
(0.006292 0.088046 1)
(0.009613 0.090273 1)
(0.013312 0.093519 1)
(0.019591 0.094999 1)
(0.026632 0.096217 1)
(0.034516 0.095997 1)
(0.000642 0.066841 1)
(0.000000 0.066667 1)
(0.074039 0.097376 1)
(0.066307 0.098353 1)
(0.058268 0.099227 1)
(0.050000 0.100000 1)
(0.042366 0.095833 1)
(0.073583 0.096130 1)
(0.050181 0.095783 1)
(0.057984 0.095848 1)
(0.065789 0.095981 1)
(0.004640 0.061026 1)
(0.003347 0.060276 1)
(0.002269 0.059650 1)
(0.001372 0.059129 1)
(0.006379 0.068398 1)
(0.006191 0.061926 1)
(0.009830 0.071118 1)
(0.009617 0.078290 1)
(0.010097 0.085636 1)
(0.015126 0.089661 1)
(0.020569 0.093326 1)
(0.027263 0.094755 1)
(0.034972 0.094450 1)
(0.014124 0.080418 1)
(0.000623 0.058695 1)
(0.000000 0.058333 1)
(0.081966 0.097450 1)
(0.074419 0.098414 1)
(0.066503 0.099251 1)
(0.058333 0.100000 1)
(0.081317 0.096240 1)
(0.088918 0.096290 1)
(0.094878 0.094878 1)
(0.042636 0.094223 1)
(0.073035 0.094635 1)
(0.050251 0.094154 1)
(0.057849 0.094245 1)
(0.065450 0.094429 1)
(0.005936 0.055936 1)
(0.004449 0.054449 1)
(0.003209 0.053209 1)
(0.002176 0.052176 1)
(0.001315 0.051315 1)
(0.010104 0.064565 1)
(0.009617 0.059419 1)
(0.015229 0.066896 1)
(0.014470 0.074199 1)
(0.017308 0.085047 1)
(0.022360 0.089253 1)
(0.028019 0.093002 1)
(0.035520 0.092595 1)
(0.019130 0.078917 1)
(0.000598 0.050598 1)
(0.000000 0.050000 1)
(0.096305 0.096305 1)
(0.089803 0.097484 1)
(0.082507 0.098459 1)
(0.074736 0.099279 1)
(0.066667 0.100000 1)
(0.080539 0.094788 1)
(0.087856 0.094857 1)
(0.093165 0.093165 1)
(0.094862 0.087720 1)
(0.042960 0.092291 1)
(0.072378 0.092841 1)
(0.050334 0.092200 1)
(0.057687 0.092320 1)
(0.065043 0.092566 1)
(0.012956 0.055741 1)
(0.011834 0.054303 1)
(0.010899 0.053104 1)
(0.010119 0.052105 1)
(0.009470 0.051272 1)
(0.014676 0.060083 1)
(0.020148 0.063040 1)
(0.022130 0.069711 1)
(0.025180 0.083451 1)
(0.030192 0.089296 1)
(0.038420 0.088874 1)
(0.027888 0.075851 1)
(0.008929 0.050578 1)
(0.008478 0.050000 1)
(0.096294 0.088820 1)
(0.097494 0.097494 1)
(0.090540 0.098479 1)
(0.082958 0.099300 1)
(0.075000 0.100000 1)
(0.079604 0.093045 1)
(0.086582 0.093137 1)
(0.089377 0.089548 1)
(0.093145 0.086401 1)
(0.094783 0.080282 1)
(0.077575 0.090164 1)
(0.047033 0.088383 1)
(0.070405 0.089970 1)
(0.055336 0.088813 1)
(0.062995 0.089444 1)
(0.020325 0.055583 1)
(0.019479 0.054184 1)
(0.018774 0.053018 1)
(0.018187 0.052046 1)
(0.017698 0.051237 1)
(0.022391 0.058375 1)
(0.027459 0.061990 1)
(0.031460 0.066442 1)
(0.035076 0.081703 1)
(0.043161 0.084195 1)
(0.036656 0.071890 1)
(0.017290 0.050562 1)
(0.016950 0.050000 1)
(0.096236 0.081132 1)
(0.097487 0.089736 1)
(0.098486 0.098486 1)
(0.091155 0.099309 1)
(0.083333 0.100000 1)
(0.094606 0.072673 1)
(0.083548 0.088670 1)
(0.088843 0.084700 1)
(0.093038 0.079262 1)
(0.078966 0.085128 1)
(0.073307 0.085193 1)
(0.052023 0.082106 1)
(0.066842 0.084714 1)
(0.060089 0.084729 1)
(0.027462 0.055401 1)
(0.026835 0.054047 1)
(0.026312 0.052920 1)
(0.025876 0.051980 1)
(0.025513 0.051197 1)
(0.029266 0.057651 1)
(0.033509 0.060865 1)
(0.038096 0.063636 1)
(0.044292 0.076390 1)
(0.052868 0.074118 1)
(0.043122 0.067316 1)
(0.025211 0.050544 1)
(0.024959 0.050000 1)
(0.096109 0.073321 1)
(0.097448 0.081841 1)
(0.098481 0.090500 1)
(0.099312 0.099312 1)
(0.091667 0.100000 1)
(0.094430 0.065022 1)
(0.092803 0.071895 1)
(0.083591 0.081613 1)
(0.089045 0.077354 1)
(0.077253 0.079511 1)
(0.070905 0.079368 1)
(0.061573 0.076923 1)
(0.033492 0.055053 1)
(0.033050 0.053787 1)
(0.032682 0.052732 1)
(0.032376 0.051852 1)
(0.032120 0.051120 1)
(0.035427 0.056967 1)
(0.039210 0.058568 1)
(0.042718 0.061389 1)
(0.049642 0.068341 1)
(0.056836 0.067591 1)
(0.047298 0.062475 1)
(0.031907 0.050509 1)
(0.031730 0.050000 1)
(0.095982 0.065480 1)
(0.097362 0.073862 1)
(0.098458 0.082431 1)
(0.099310 0.091136 1)
(0.100000 0.100000 1)
(0.094299 0.057377 1)
(0.092567 0.064472 1)
(0.089138 0.069494 1)
(0.083140 0.073843 1)
(0.059427 0.060109 1)
(0.075643 0.069631 1)
(0.064457 0.065238 1)
(0.038291 0.054475 1)
(0.038005 0.053353 1)
(0.037768 0.052419 1)
(0.037570 0.051640 1)
(0.037405 0.050991 1)
(0.045527 0.058896 1)
(0.040332 0.055919 1)
(0.042791 0.057557 1)
(0.053437 0.062157 1)
(0.055528 0.058159 1)
(0.047941 0.059012 1)
(0.050478 0.059614 1)
(0.057374 0.055656 1)
(0.058265 0.052074 1)
(0.037267 0.050451 1)
(0.037153 0.050000 1)
(0.094320 0.049756 1)
(0.095887 0.057643 1)
(0.097275 0.065862 1)
(0.098405 0.074312 1)
(0.099299 0.082923 1)
(0.100000 0.091667 1)
(0.058114 0.049288 1)
(0.092393 0.057057 1)
(0.089088 0.061639 1)
(0.061868 0.054383 1)
(0.061842 0.049414 1)
(0.083199 0.064914 1)
(0.067057 0.057935 1)
(0.075509 0.063564 1)
(0.092421 0.049675 1)
(0.042166 0.053878 1)
(0.041996 0.052906 1)
(0.041854 0.052096 1)
(0.041735 0.051422 1)
(0.041636 0.050859 1)
(0.047237 0.057038 1)
(0.045616 0.056158 1)
(0.043822 0.054786 1)
(0.052592 0.057881 1)
(0.054326 0.055999 1)
(0.049727 0.056700 1)
(0.054830 0.053209 1)
(0.055901 0.050617 1)
(0.056143 0.048253 1)
(0.041554 0.050391 1)
(0.041486 0.050000 1)
(0.094480 0.042131 1)
(0.095903 0.049824 1)
(0.097211 0.057865 1)
(0.098353 0.066180 1)
(0.099275 0.074687 1)
(0.100000 0.083333 1)
(0.055717 0.045969 1)
(0.054413 0.043966 1)
(0.053543 0.042211 1)
(0.058778 0.046329 1)
(0.062743 0.046233 1)
(0.089018 0.053341 1)
(0.084626 0.056545 1)
(0.067595 0.050537 1)
(0.077801 0.056647 1)
(0.092634 0.042287 1)
(0.088939 0.044844 1)
(0.052655 0.042029 1)
(0.045237 0.052655 1)
(0.045143 0.051800 1)
(0.045066 0.051088 1)
(0.047865 0.054862 1)
(0.046488 0.053838 1)
(0.052055 0.054655 1)
(0.049921 0.054224 1)
(0.052503 0.052533 1)
(0.053893 0.051335 1)
(0.054163 0.049543 1)
(0.054421 0.047782 1)
(0.045001 0.050495 1)
(0.044947 0.050000 1)
(0.052442 0.045274 1)
(0.053597 0.046639 1)
(0.094659 0.034500 1)
(0.096018 0.042002 1)
(0.097222 0.049881 1)
(0.098315 0.058050 1)
(0.099251 0.066446 1)
(0.100000 0.075000 1)
(0.057008 0.042918 1)
(0.055516 0.040297 1)
(0.054060 0.038301 1)
(0.092874 0.034890 1)
(0.060826 0.042773 1)
(0.065383 0.043664 1)
(0.082668 0.047908 1)
(0.073658 0.046118 1)
(0.089668 0.037031 1)
(0.085595 0.039493 1)
(0.053043 0.038013 1)
(0.051915 0.041878 1)
(0.051656 0.045169 1)
(0.047812 0.051924 1)
(0.048802 0.052892 1)
(0.050723 0.052511 1)
(0.052299 0.050788 1)
(0.052723 0.048797 1)
(0.047757 0.050874 1)
(0.047712 0.050000 1)
(0.051820 0.047834 1)
(0.093065 0.027540 1)
(0.094803 0.026903 1)
(0.096148 0.034175 1)
(0.097300 0.041894 1)
(0.098321 0.049928 1)
(0.099234 0.058205 1)
(0.100000 0.066667 1)
(0.058108 0.039287 1)
(0.056678 0.035185 1)
(0.054654 0.033463 1)
(0.090056 0.029613 1)
(0.063063 0.038252 1)
(0.069538 0.039705 1)
(0.078561 0.038334 1)
(0.084554 0.033407 1)
(0.053488 0.033028 1)
(0.052195 0.037774 1)
(0.051299 0.041752 1)
(0.051001 0.045081 1)
(0.050000 0.050000 1)
(0.050827 0.047767 1)
(0.090293 0.022361 1)
(0.093200 0.020313 1)
(0.093291 0.013304 1)
(0.094904 0.019399 1)
(0.096251 0.026373 1)
(0.097388 0.033904 1)
(0.098368 0.041804 1)
(0.099237 0.049967 1)
(0.100000 0.058333 1)
(0.061141 0.033362 1)
(0.057687 0.029162 1)
(0.055237 0.027469 1)
(0.085631 0.026781 1)
(0.068733 0.032531 1)
(0.077814 0.029190 1)
(0.053925 0.026840 1)
(0.052516 0.032667 1)
(0.051488 0.037574 1)
(0.050785 0.041646 1)
(0.050455 0.045008 1)
(0.050000 0.047712 1)
(0.085230 0.020475 1)
(0.088861 0.015730 1)
(0.090015 0.009855 1)
(0.093374 0.006626 1)
(0.094972 0.012059 1)
(0.096324 0.018638 1)
(0.097458 0.025931 1)
(0.098421 0.033678 1)
(0.099258 0.041729 1)
(0.100000 0.050000 1)
(0.062707 0.025796 1)
(0.058313 0.021343 1)
(0.055742 0.020462 1)
(0.079185 0.021623 1)
(0.069557 0.022123 1)
(0.056124 0.013254 1)
(0.054303 0.019582 1)
(0.052831 0.026316 1)
(0.051706 0.032365 1)
(0.050900 0.037407 1)
(0.050357 0.041559 1)
(0.050000 0.044947 1)
(0.082080 0.015693 1)
(0.084973 0.010544 1)
(0.087864 0.006552 1)
(0.095035 0.004965 1)
(0.096373 0.011020 1)
(0.097507 0.018003 1)
(0.098464 0.025563 1)
(0.099282 0.033490 1)
(0.100000 0.041667 1)
(0.063411 0.017395 1)
(0.059430 0.014849 1)
(0.074800 0.015475 1)
(0.068625 0.015164 1)
(0.059606 0.009373 1)
(0.056385 0.006385 1)
(0.054589 0.012057 1)
(0.053104 0.018848 1)
(0.051920 0.025879 1)
(0.051031 0.032114 1)
(0.050409 0.037268 1)
(0.050000 0.041486 1)
(0.078583 0.010243 1)
(0.081540 0.006607 1)
(0.088817 0.004910 1)
(0.096418 0.003582 1)
(0.097541 0.010155 1)
(0.098493 0.017474 1)
(0.099302 0.025256 1)
(0.100000 0.033333 1)
(0.064007 0.010665 1)
(0.071350 0.010164 1)
(0.062076 0.006505 1)
(0.054785 0.004785 1)
(0.053310 0.011060 1)
(0.052105 0.018237 1)
(0.051160 0.025515 1)
(0.050469 0.031904 1)
(0.050000 0.037153 1)
(0.074978 0.006616 1)
(0.081989 0.004951 1)
(0.089611 0.003542 1)
(0.097571 0.002429 1)
(0.098514 0.009435 1)
(0.099315 0.017034 1)
(0.100000 0.025000 1)
(0.068406 0.006561 1)
(0.061138 0.004875 1)
(0.053452 0.003452 1)
(0.052245 0.010229 1)
(0.051272 0.017728 1)
(0.050527 0.025211 1)
(0.050000 0.031730 1)
(0.074984 0.004958 1)
(0.082364 0.003572 1)
(0.090273 0.002402 1)
(0.098532 0.001468 1)
(0.099324 0.008834 1)
(0.100000 0.016667 1)
(0.067970 0.004917 1)
(0.060357 0.003517 1)
(0.052341 0.002341 1)
(0.051357 0.009536 1)
(0.050578 0.017304 1)
(0.050000 0.024959 1)
(0.074988 0.003577 1)
(0.082676 0.002422 1)
(0.090824 0.001452 1)
(0.099333 0.000667 1)
(0.100000 0.008333 1)
(0.067607 0.003547 1)
(0.059705 0.002385 1)
(0.051415 0.001415 1)
(0.050617 0.008959 1)
(0.050000 0.016950 1)
(0.074992 0.002425 1)
(0.082936 0.001464 1)
(0.091284 0.000660 1)
(0.100000 0.000000 1)
(0.067304 0.002405 1)
(0.059163 0.001441 1)
(0.050643 0.000643 1)
(0.050000 0.008478 1)
(0.074995 0.001466 1)
(0.083153 0.000665 1)
(0.091667 0.000000 1)
(0.067052 0.001454 1)
(0.058710 0.000655 1)
(0.050000 0.000000 1)
(0.074998 0.000666 1)
(0.083333 0.000000 1)
(0.066842 0.000661 1)
(0.058333 0.000000 1)
(0.075000 0.000000 1)
(0.066667 0.000000 1)
);

blocks
(
    hex (2 508 510 4 6 512 506 0) (1 1 1) simpleGrading (1 1 1)
    hex (6 512 506 0 7 513 507 1) (1 1 1) simpleGrading (1 1 1)
    hex (0 506 511 5 1 507 514 8) (1 1 1) simpleGrading (1 1 1)
    hex (3 509 508 2 10 516 515 9) (1 1 1) simpleGrading (1 1 1)
    hex (3 509 518 12 2 508 510 4) (1 1 1) simpleGrading (1 1 1)
    hex (4 510 519 13 0 506 511 5) (1 1 1) simpleGrading (1 1 1)
    hex (2 508 512 6 9 515 521 15) (1 1 1) simpleGrading (1 1 1)
    hex (6 512 513 7 15 521 522 16) (1 1 1) simpleGrading (1 1 1)
    hex (5 511 520 14 8 514 524 18) (1 1 1) simpleGrading (1 1 1)
    hex (10 516 515 9 19 525 526 20) (1 1 1) simpleGrading (1 1 1)
    hex (22 528 516 10 21 527 525 19) (1 1 1) simpleGrading (1 1 1)
    hex (11 517 509 3 22 528 516 10) (1 1 1) simpleGrading (1 1 1)
    hex (11 517 530 24 3 509 518 12) (1 1 1) simpleGrading (1 1 1)
    hex (12 518 531 25 4 510 519 13) (1 1 1) simpleGrading (1 1 1)
    hex (13 519 532 26 5 511 520 14) (1 1 1) simpleGrading (1 1 1)
    hex (26 532 533 27 14 520 523 17) (1 1 1) simpleGrading (1 1 1)
    hex (9 515 521 15 20 526 534 28) (1 1 1) simpleGrading (1 1 1)
    hex (15 521 522 16 28 534 535 29) (1 1 1) simpleGrading (1 1 1)
    hex (14 520 523 17 18 524 537 31) (1 1 1) simpleGrading (1 1 1)
    hex (27 533 538 32 17 523 536 30) (1 1 1) simpleGrading (1 1 1)
    hex (21 527 525 19 34 540 541 35) (1 1 1) simpleGrading (1 1 1)
    hex (19 525 526 20 35 541 542 36) (1 1 1) simpleGrading (1 1 1)
    hex (38 544 527 21 37 543 540 34) (1 1 1) simpleGrading (1 1 1)
    hex (39 545 528 22 38 544 527 21) (1 1 1) simpleGrading (1 1 1)
    hex (23 529 517 11 39 545 528 22) (1 1 1) simpleGrading (1 1 1)
    hex (23 529 547 41 11 517 530 24) (1 1 1) simpleGrading (1 1 1)
    hex (24 530 548 42 12 518 531 25) (1 1 1) simpleGrading (1 1 1)
    hex (25 531 549 43 13 519 532 26) (1 1 1) simpleGrading (1 1 1)
    hex (43 549 550 44 26 532 533 27) (1 1 1) simpleGrading (1 1 1)
    hex (20 526 534 28 36 542 551 45) (1 1 1) simpleGrading (1 1 1)
    hex (28 534 535 29 45 551 552 46) (1 1 1) simpleGrading (1 1 1)
    hex (32 538 539 33 30 536 554 48) (1 1 1) simpleGrading (1 1 1)
    hex (17 523 536 30 31 537 555 49) (1 1 1) simpleGrading (1 1 1)
    hex (44 550 556 50 27 533 538 32) (1 1 1) simpleGrading (1 1 1)
    hex (50 556 557 51 32 538 539 33) (1 1 1) simpleGrading (1 1 1)
    hex (52 558 553 47 51 557 539 33) (1 1 1) simpleGrading (1 1 1)
    hex (54 560 540 34 55 561 541 35) (1 1 1) simpleGrading (1 1 1)
    hex (55 561 541 35 56 562 542 36) (1 1 1) simpleGrading (1 1 1)
    hex (57 563 543 37 54 560 540 34) (1 1 1) simpleGrading (1 1 1)
    hex (59 565 544 38 58 564 543 37) (1 1 1) simpleGrading (1 1 1)
    hex (60 566 545 39 59 565 544 38) (1 1 1) simpleGrading (1 1 1)
    hex (40 546 529 23 60 566 545 39) (1 1 1) simpleGrading (1 1 1)
    hex (40 546 568 62 23 529 547 41) (1 1 1) simpleGrading (1 1 1)
    hex (41 547 569 63 24 530 548 42) (1 1 1) simpleGrading (1 1 1)
    hex (42 548 570 64 25 531 549 43) (1 1 1) simpleGrading (1 1 1)
    hex (64 570 571 65 43 549 550 44) (1 1 1) simpleGrading (1 1 1)
    hex (56 562 542 36 66 572 551 45) (1 1 1) simpleGrading (1 1 1)
    hex (66 572 551 45 67 573 552 46) (1 1 1) simpleGrading (1 1 1)
    hex (53 559 575 69 52 558 553 47) (1 1 1) simpleGrading (1 1 1)
    hex (47 553 576 70 33 539 554 48) (1 1 1) simpleGrading (1 1 1)
    hex (30 536 554 48 49 555 577 71) (1 1 1) simpleGrading (1 1 1)
    hex (65 571 578 72 44 550 556 50) (1 1 1) simpleGrading (1 1 1)
    hex (72 578 580 74 50 556 557 51) (1 1 1) simpleGrading (1 1 1)
    hex (75 581 558 52 74 580 557 51) (1 1 1) simpleGrading (1 1 1)
    hex (76 582 559 53 75 581 558 52) (1 1 1) simpleGrading (1 1 1)
    hex (73 579 574 68 76 582 559 53) (1 1 1) simpleGrading (1 1 1)
    hex (77 583 563 57 78 584 560 54) (1 1 1) simpleGrading (1 1 1)
    hex (78 584 560 54 79 585 561 55) (1 1 1) simpleGrading (1 1 1)
    hex (79 585 561 55 80 586 562 56) (1 1 1) simpleGrading (1 1 1)
    hex (81 587 564 58 57 563 543 37) (1 1 1) simpleGrading (1 1 1)
    hex (82 588 587 81 77 583 563 57) (1 1 1) simpleGrading (1 1 1)
    hex (62 568 593 87 41 547 569 63) (1 1 1) simpleGrading (1 1 1)
    hex (63 569 594 88 42 548 570 64) (1 1 1) simpleGrading (1 1 1)
    hex (88 594 595 89 64 570 571 65) (1 1 1) simpleGrading (1 1 1)
    hex (80 586 562 56 91 597 572 66) (1 1 1) simpleGrading (1 1 1)
    hex (91 597 572 66 92 598 573 67) (1 1 1) simpleGrading (1 1 1)
    hex (68 574 600 94 53 559 575 69) (1 1 1) simpleGrading (1 1 1)
    hex (69 575 601 95 47 553 576 70) (1 1 1) simpleGrading (1 1 1)
    hex (70 576 602 96 48 554 577 71) (1 1 1) simpleGrading (1 1 1)
    hex (97 603 599 93 73 579 574 68) (1 1 1) simpleGrading (1 1 1)
    hex (89 595 606 100 65 571 578 72) (1 1 1) simpleGrading (1 1 1)
    hex (100 606 608 102 72 578 580 74) (1 1 1) simpleGrading (1 1 1)
    hex (103 609 581 75 102 608 580 74) (1 1 1) simpleGrading (1 1 1)
    hex (104 610 582 76 103 609 581 75) (1 1 1) simpleGrading (1 1 1)
    hex (101 607 579 73 104 610 582 76) (1 1 1) simpleGrading (1 1 1)
    hex (105 611 588 82 106 612 583 77) (1 1 1) simpleGrading (1 1 1)
    hex (106 612 583 77 107 613 584 78) (1 1 1) simpleGrading (1 1 1)
    hex (107 613 584 78 108 614 585 79) (1 1 1) simpleGrading (1 1 1)
    hex (108 614 585 79 109 615 586 80) (1 1 1) simpleGrading (1 1 1)
    hex (87 593 622 116 63 569 594 88) (1 1 1) simpleGrading (1 1 1)
    hex (116 622 623 117 88 594 595 89) (1 1 1) simpleGrading (1 1 1)
    hex (109 615 586 80 119 625 597 91) (1 1 1) simpleGrading (1 1 1)
    hex (119 625 597 91 120 626 598 92) (1 1 1) simpleGrading (1 1 1)
    hex (98 604 628 122 97 603 599 93) (1 1 1) simpleGrading (1 1 1)
    hex (93 599 629 123 68 574 600 94) (1 1 1) simpleGrading (1 1 1)
    hex (94 600 630 124 69 575 601 95) (1 1 1) simpleGrading (1 1 1)
    hex (95 601 631 125 70 576 602 96) (1 1 1) simpleGrading (1 1 1)
    hex (126 632 603 97 101 607 579 73) (1 1 1) simpleGrading (1 1 1)
    hex (127 633 604 98 126 632 603 97) (1 1 1) simpleGrading (1 1 1)
    hex (99 605 627 121 127 633 604 98) (1 1 1) simpleGrading (1 1 1)
    hex (117 623 636 130 89 595 606 100) (1 1 1) simpleGrading (1 1 1)
    hex (130 636 638 132 100 606 608 102) (1 1 1) simpleGrading (1 1 1)
    hex (133 639 609 103 132 638 608 102) (1 1 1) simpleGrading (1 1 1)
    hex (134 640 610 104 133 639 609 103) (1 1 1) simpleGrading (1 1 1)
    hex (131 637 607 101 134 640 610 104) (1 1 1) simpleGrading (1 1 1)
    hex (105 611 612 106 135 641 642 136) (1 1 1) simpleGrading (1 1 1)
    hex (106 612 613 107 136 642 643 137) (1 1 1) simpleGrading (1 1 1)
    hex (107 613 614 108 137 643 644 138) (1 1 1) simpleGrading (1 1 1)
    hex (108 614 615 109 138 644 645 139) (1 1 1) simpleGrading (1 1 1)
    hex (109 615 625 119 139 645 653 147) (1 1 1) simpleGrading (1 1 1)
    hex (119 625 626 120 147 653 654 148) (1 1 1) simpleGrading (1 1 1)