/*--------------------------------*- C++ -*----------------------------------*\
| =========                 |                                                 |
| \\      /  F ield         | OpenFOAM: The Open Source CFD Toolbox           |
|   \\  /    O peration     | Web:      https://www.OpenFOAM.org              |
|  \\    /   A nd           | Version:  8                                     |
|    \\/     M anipulation  |                                                 |
\*---------------------------------------------------------------------------*/
FoamFile
{
    version     2.0;
    format      ascii;
    class       dictionary;
    object      blockMeshDict;
}
// * * * * * * * * * * * * * * * * * * * * * * * * * * * * * * * * * * * * * //

convertToMeters 1;

vertices
(
(0.000000 0.020000 0)
(-0.002676 0.020000 0)
(-0.004873 0.020127 0)
(-0.005000 0.020000 0)
(0.002676 0.020000 0)
(0.002636 0.020096 0)
(0.000000 0.020111 0)
(-0.002628 0.020116 0)
(-0.004721 0.020279 0)
(-0.004856 0.022500 0)
(-0.005000 0.022500 0)
(-0.008067 0.022500 0)
(-0.012263 0.022500 0)
(0.005000 0.020000 0)
(0.004897 0.020103 0)
(0.002588 0.020212 0)
(-0.000000 0.020244 0)
(-0.002570 0.020255 0)
(-0.004538 0.020462 0)
(-0.004684 0.022500 0)
(-0.005000 0.022644 0)
(-0.008084 0.022670 0)
(-0.012303 0.022704 0)
(-0.018003 0.022500 0)
(0.005000 0.022500 0)
(0.004872 0.022500 0)
(0.004773 0.020227 0)
(0.002530 0.020351 0)
(-0.000000 0.020404 0)
(-0.002501 0.020423 0)
(-0.004318 0.020682 0)
(-0.004477 0.022500 0)
(-0.005000 0.022816 0)
(-0.008104 0.022873 0)
(-0.025000 0.022500 0)
(-0.012352 0.022949 0)
(-0.018076 0.022742 0)
(0.008067 0.022500 0)
(0.005000 0.022644 0)
(0.004719 0.022500 0)
(0.004625 0.020375 0)
(0.000000 -0.020000 0)
(-0.002676 -0.020000 0)
(0.002676 -0.020000 0)
(0.002461 0.020517 0)
(-0.000000 0.020596 0)
(-0.002417 0.020623 0)
(-0.004055 0.020945 0)
(-0.004229 0.022500 0)
(-0.005000 0.023023 0)
(-0.008128 0.023118 0)
(-0.005000 -0.020000 0)
(-0.030000 0.017500 0)
(-0.025114 0.022775 0)
(-0.012411 0.023243 0)
(-0.018164 0.023032 0)
(-0.030000 0.000000 0)
(-0.030000 0.009842 0)
(0.012263 0.022500 0)
(0.008086 0.022694 0)
(0.005000 0.022816 0)
(0.004535 0.022500 0)
(0.004447 0.020553 0)
(-0.004896 -0.020104 0)
(0.002628 -0.020116 0)
(0.000000 -0.020110 0)
(-0.002635 -0.020098 0)
(0.005000 -0.020000 0)
(0.004873 -0.020127 0)
(0.002378 0.020717 0)
(-0.000000 0.020826 0)
(-0.002318 0.020864 0)
(-0.003739 0.021261 0)
(-0.003931 0.022500 0)
(-0.005000 0.023271 0)
(-0.008157 0.023411 0)
(-0.005000 -0.022500 0)
(-0.030000 -0.009842 0)
(-0.030304 0.017626 0)
(-0.025251 0.023106 0)
(-0.012481 0.023596 0)
(-0.018270 0.023380 0)
(-0.030342 0.000000 0)
(-0.030327 0.009907 0)
(0.018003 0.022500 0)
(0.012309 0.022732 0)
(0.008109 0.022926 0)
(0.005000 0.023022 0)
(0.004314 0.022500 0)
(0.004233 0.020767 0)
(-0.004872 -0.022500 0)
(-0.004771 -0.020229 0)
(0.002570 -0.020255 0)
(0.000000 -0.020243 0)
(-0.002586 -0.020215 0)
(0.005000 -0.022500 0)
(0.004857 -0.022500 0)
(0.004722 -0.020278 0)
(0.008067 -0.022500 0)
(0.002279 0.020957 0)
(-0.000000 0.021102 0)
(-0.002198 0.021153 0)
(-0.003360 0.021640 0)
(-0.003574 0.022500 0)
(-0.005000 0.023569 0)
(-0.008191 0.023763 0)
(-0.008067 -0.022500 0)
(-0.005000 -0.022643 0)
(-0.030347 -0.009911 0)
(-0.030000 -0.017500 0)
(-0.030668 0.017777 0)
(-0.025415 0.023503 0)
(-0.012565 0.024019 0)
(-0.018396 0.023797 0)
(-0.030753 0.000000 0)
(-0.030720 0.009985 0)
(0.003976 0.021024 0)
(0.025000 0.022500 0)
(0.018084 0.022769 0)
(0.012364 0.023010 0)
(0.008136 0.023204 0)
(0.005000 0.023271 0)
(0.004049 0.022500 0)
(-0.004718 -0.022500 0)
(-0.004621 -0.020379 0)
(0.002501 -0.020421 0)
(0.000000 -0.020402 0)
(-0.002528 -0.020356 0)
(0.004539 -0.020461 0)
(0.005000 -0.022643 0)
(0.004686 -0.022500 0)
(0.012263 -0.022500 0)
(0.008084 -0.022668 0)
(0.018003 -0.022500 0)
(0.002160 0.021245 0)
(-0.000000 0.021433 0)
(-0.002054 0.021500 0)
(-0.002905 0.022095 0)
(-0.003145 0.022500 0)
(-0.005000 0.023926 0)
(-0.008233 0.024185 0)
(-0.012263 -0.022500 0)
(-0.008086 -0.022695 0)
(-0.005000 -0.022814 0)
(-0.018003 -0.022500 0)
(-0.025000 -0.022500 0)
(-0.030764 -0.009994 0)
(-0.030337 -0.017640 0)
(-0.031106 0.017958 0)
(-0.012666 0.024527 0)
(-0.025612 0.023979 0)
(-0.018548 0.024298 0)
(-0.031246 0.000000 0)
(-0.031191 0.010079 0)
(0.030000 0.017500 0)
(0.003668 0.021332 0)
(0.003731 0.022500 0)
(0.025125 0.022801 0)
(0.018182 0.023092 0)
(0.012431 0.023344 0)
(0.008169 0.023539 0)
(0.005000 0.023568 0)
(0.030000 0.009842 0)
(0.030000 0.000000 0)
(0.030000 -0.009842 0)
(-0.004533 -0.022500 0)
(-0.004440 -0.020560 0)
(0.002418 -0.020622 0)
(0.000000 -0.020593 0)
(-0.002458 -0.020525 0)
(0.004321 -0.020679 0)
(0.004480 -0.022500 0)
(0.005000 -0.022814 0)
(0.012303 -0.022703 0)
(0.008104 -0.022871 0)
(0.025000 -0.022500 0)
(0.018076 -0.022740 0)
(0.002017 0.021590 0)
(-0.000000 0.021830 0)
(-0.001882 0.021916 0)
(-0.001603 0.022452 0)
(-0.002631 0.022500 0)
(-0.005000 0.024355 0)
(-0.008283 0.024691 0)
(-0.012310 -0.022738 0)
(-0.005000 -0.023020 0)
(-0.008109 -0.022928 0)
(-0.018087 -0.022779 0)
(-0.025129 -0.022813 0)
(-0.031264 -0.010094 0)
(-0.030742 -0.017807 0)
(-0.031631 0.018176 0)
(-0.012787 0.025137 0)
(-0.018731 0.024900 0)
(-0.025849 0.024550 0)
(-0.031837 0.000000 0)
(-0.031756 0.010191 0)
(0.003299 0.021701 0)
(0.030324 0.017634 0)
(0.003349 0.022500 0)
(0.005000 0.023925 0)
(0.025274 0.023162 0)
(0.018300 0.023479 0)
(0.012511 0.023745 0)
(0.008209 0.023940 0)
(0.030333 0.009909 0)
(0.030331 0.000000 0)
(0.030000 -0.017500 0)
(0.030317 -0.009905 0)
(-0.004311 -0.022500 0)
(-0.004224 -0.020776 0)
(0.002319 -0.020862 0)
(0.000000 -0.020822 0)
(-0.002374 -0.020728 0)
(0.004058 -0.020942 0)
(0.004234 -0.022500 0)
(0.005000 -0.023020 0)
(0.008127 -0.023113 0)
(0.012352 -0.022946 0)
(0.025114 -0.022775 0)
(0.018163 -0.023029 0)
(0.001739 0.022440 0)
(0.000987 0.022463 0)
(0.000127 0.022460 0)
(-0.001581 0.024015 0)
(-0.005000 0.024869 0)
(-0.008343 0.025299 0)
(-0.012367 -0.023023 0)
(-0.005000 -0.023266 0)
(-0.008137 -0.023208 0)
(-0.018189 -0.023114 0)
(-0.025285 -0.023188 0)
(-0.031864 -0.010213 0)
(-0.031227 -0.018008 0)
(-0.012933 0.025868 0)
(-0.032261 0.018437 0)
(-0.018950 0.025621 0)
(-0.026133 0.025235 0)
(-0.032547 0.000000 0)
(-0.032434 0.010326 0)
(0.002891 0.022500 0)
(0.030712 0.017795 0)
(0.005000 0.024354 0)
(0.008256 0.024422 0)
(0.025454 0.023596 0)
(0.018441 0.023944 0)
(0.012606 0.024226 0)
(0.030733 0.009988 0)
(0.030727 0.000000 0)
(0.030304 -0.017626 0)
(0.030698 -0.009981 0)
(-0.004045 -0.022500 0)
(-0.003965 -0.021035 0)
(0.002199 -0.021150 0)
(0.000000 -0.021097 0)
(-0.002273 -0.020972 0)
(0.003744 -0.021256 0)
(0.003938 -0.022500 0)
(0.005000 -0.023266 0)
(0.008156 -0.023404 0)
(0.012410 -0.023238 0)
(0.025251 -0.023105 0)
(0.018268 -0.023375 0)
(0.003098 0.025014 0)
(0.001394 0.024193 0)
(-0.002999 0.026214 0)
(0.000764 0.024124 0)
(-0.001015 0.025904 0)
(-0.006133 0.026609 0)
(-0.004396 0.028543 0)
(-0.009164 0.026731 0)
(-0.013726 0.027978 0)
(-0.012435 -0.023366 0)
(-0.005000 -0.023563 0)
(-0.008170 -0.023545 0)
(-0.018311 -0.023515 0)
(-0.025471 -0.023638 0)
(-0.032584 -0.010356 0)
(-0.031810 -0.018250 0)
(-0.019212 0.026487 0)
(-0.033017 0.018750 0)
(-0.026474 0.026058 0)
(-0.033399 0.000000 0)
(-0.033248 0.010488 0)
(-0.020248 0.028763 0)
(0.005000 0.024868 0)
(0.031178 0.017988 0)
(0.008313 0.025000 0)
(0.012721 0.024803 0)
(0.025669 0.024116 0)
(0.018610 0.024502 0)
(0.031213 0.010084 0)
(0.031203 0.000000 0)
(0.030669 -0.017777 0)
(0.031155 -0.010072 0)
(-0.003726 -0.022500 0)
(-0.003654 -0.021346 0)
(0.002056 -0.021496 0)
(0.000000 -0.021427 0)
(-0.002152 -0.021264 0)
(0.003366 -0.021634 0)
(0.003583 -0.022500 0)
(0.005000 -0.023562 0)
(0.008190 -0.023753 0)
(0.012479 -0.023588 0)
(0.025415 -0.023501 0)
(0.018394 -0.023791 0)
(0.005197 0.025930 0)
(0.003991 0.027472 0)
(0.001737 0.027868 0)
(-0.001810 0.028159 0)
(0.000078 0.027377 0)
(-0.007319 0.029105 0)
(-0.005169 0.030694 0)
(-0.002948 0.030477 0)
(-0.011160 0.030015 0)
(-0.017292 0.032388 0)
(-0.023407 0.031826 0)
(-0.012517 -0.023777 0)
(-0.005000 -0.023918 0)
(-0.008210 -0.023948 0)
(-0.018457 -0.023997 0)
(-0.025695 -0.024178 0)
(-0.033447 -0.010528 0)
(-0.032509 -0.018539 0)
(-0.026882 0.027045 0)
(-0.033924 0.019125 0)
(-0.034421 0.000000 0)
(-0.034225 0.010683 0)
(-0.027976 0.029122 0)
(-0.032490 0.025281 0)
(0.008382 0.025693 0)
(0.031738 0.018220 0)
(0.012859 0.025496 0)
(0.018813 0.025172 0)
(0.025928 0.024740 0)
(0.031789 0.010198 0)
(0.031774 0.000000 0)
(0.031107 -0.017959 0)
(0.031704 -0.010181 0)
(-0.003342 -0.022500 0)
(-0.003280 -0.021720 0)
(0.001884 -0.021911 0)
(0.000000 -0.021823 0)
(-0.002007 -0.021614 0)
(0.002912 -0.022088 0)
(0.003156 -0.022500 0)
(0.005000 -0.023917 0)
(0.001554 -0.022376 0)
(0.008232 -0.024173 0)
(0.012563 -0.024009 0)
(0.025611 -0.023976 0)
(0.018545 -0.024289 0)
(0.009208 0.027341 0)
(0.006511 0.028870 0)
(0.003805 0.030290 0)
(0.000160 0.031078 0)
(-0.007480 0.032799 0)
(-0.003611 0.033416 0)
(-0.011754 0.034821 0)
(-0.016998 0.037739 0)
(-0.023183 0.036141 0)
(-0.029019 0.033855 0)
(-0.036405 0.038257 0)
(-0.012615 -0.024270 0)
(-0.005000 -0.024344 0)
(-0.008257 -0.024433 0)
(-0.018632 -0.024576 0)
(-0.025964 -0.024826 0)
(-0.034484 -0.010734 0)
(-0.033348 -0.018887 0)
(-0.035013 0.019576 0)
(-0.035648 0.000000 0)
(-0.035397 0.010916 0)
(-0.034995 0.028506 0)
(-0.037344 0.020877 0)
(-0.042467 0.033576 0)
(-0.044002 0.042139 0)
(0.013024 0.026327 0)
(0.032409 0.018498 0)
(0.019057 0.025975 0)
(0.026238 0.025490 0)
(0.032480 0.010336 0)
(0.032460 0.000000 0)
(0.031633 -0.018176 0)
(0.032362 -0.010312 0)
(-0.002883 -0.022500 0)
(-0.001593 -0.022744 0)
(-0.000055 -0.022449 0)
(-0.001070 -0.022766 0)
(0.002645 -0.022500 0)
(0.005000 -0.024344 0)
(0.001511 -0.023963 0)
(0.008281 -0.024676 0)
(0.012663 -0.024513 0)
(0.025847 -0.024546 0)
(0.018727 -0.024887 0)
(0.013739 0.028442 0)
(0.010059 0.030152 0)
(0.006883 0.032703 0)
(0.003550 0.033750 0)
(0.000073 0.036757 0)
(-0.005941 0.038540 0)
(-0.012753 0.042937 0)
(-0.020009 0.042410 0)
(-0.028555 0.043917 0)
(-0.038744 0.047282 0)
(-0.005000 -0.024856 0)
(-0.012733 -0.024862 0)
(-0.008315 -0.025014 0)
(-0.018843 -0.025270 0)
(-0.026286 -0.025604 0)
(-0.035728 -0.010982 0)
(-0.034354 -0.019304 0)
(-0.037888 0.012289 0)
(-0.038415 -0.011924 0)
(-0.038433 -0.003314 0)
(-0.038539 0.003817 0)
(-0.042253 0.016796 0)
(-0.042471 0.023565 0)
(-0.050452 0.039590 0)
(-0.050292 0.032220 0)
(-0.051941 0.051990 0)
(0.019349 0.026939 0)
(0.033215 0.018832 0)
(0.026611 0.026389 0)
(0.033309 0.010500 0)
(0.033282 0.000000 0)
(0.032264 -0.018438 0)
(0.033152 -0.010469 0)
(-0.002971 -0.025002 0)
(-0.001741 -0.024396 0)
(-0.000498 -0.024827 0)
(0.000920 -0.026193 0)
(0.005000 -0.024855 0)
(0.003360 -0.026254 0)
(0.008341 -0.025279 0)
(0.012784 -0.025119 0)
(0.026131 -0.025230 0)
(0.018945 -0.025605 0)
(0.020680 0.029373 0)
(0.016318 0.033099 0)
(0.011023 0.035242 0)
(0.015310 0.038656 0)
(0.005978 0.038355 0)
(0.000045 0.042628 0)
(-0.005732 0.045198 0)
(-0.008980 0.050144 0)
(-0.018509 0.052211 0)
(-0.034302 0.058840 0)
(-0.053827 0.071286 0)
(-0.003745 -0.027372 0)
(-0.005911 -0.026375 0)
(-0.008383 -0.025711 0)
(-0.012874 -0.025572 0)
(-0.019096 -0.026103 0)
(-0.026672 -0.026537 0)
(-0.035562 -0.019804 0)
(-0.038150 -0.020402 0)
(-0.042833 -0.016069 0)
(-0.043555 0.009990 0)
(-0.044546 -0.008967 0)
(-0.044709 0.000170 0)
(-0.049596 0.017440 0)
(-0.053811 0.026356 0)
(-0.061647 0.038230 0)
(-0.070994 0.057980 0)
(0.028235 0.029502 0)
(0.027058 0.027467 0)
(0.034181 0.019232 0)
(0.034304 0.010698 0)
(0.034269 0.000000 0)
(0.033021 -0.018751 0)
(0.034099 -0.010658 0)
(-0.001912 -0.027488 0)
(-0.000361 -0.027693 0)
(0.002058 -0.028837 0)
(0.006473 -0.026659 0)
(0.004740 -0.028262 0)
(-0.003587 -0.030123 0)
(0.009866 -0.027148 0)
(0.012928 -0.025845 0)
(0.026471 -0.026051 0)
(0.019206 -0.026467 0)
(0.023431 0.033583 0)
(0.020918 0.038972 0)
(0.011418 0.042702 0)
(0.016920 0.043799 0)
(0.030316 0.033524 0)
(0.006655 0.046420 0)
(-0.000784 0.050582 0)
(-0.082263 0.084368 0)
(-0.006966 0.060061 0)
(-0.017753 0.068873 0)
(-0.033686 0.079398 0)
(-0.056411 0.099048 0)
(-0.006538 -0.028855 0)
(-0.009346 -0.027483 0)
(-0.013043 -0.026424 0)
(-0.019399 -0.027103 0)
(-0.027136 -0.027657 0)
(-0.034255 -0.025579 0)
(-0.040626 -0.025695 0)
(-0.043291 -0.021341 0)
(-0.050446 -0.016036 0)
(-0.053321 0.007118 0)
(-0.054752 -0.006331 0)
(-0.064079 0.020214 0)
(-0.081509 0.037072 0)
(-0.098497 0.059644 0)
(0.033905 0.025318 0)
(0.035564 0.029506 0)
(0.035341 0.019712 0)
(0.035498 0.010936 0)
(0.035454 0.000000 0)
(0.033930 -0.019128 0)
(0.035237 -0.010884 0)
(-0.007019 -0.032997 0)
(-0.000917 -0.030751 0)
(0.002047 -0.032302 0)
(0.004620 -0.031215 0)
(0.007459 -0.029245 0)
(-0.003223 -0.034788 0)
(0.011190 -0.030504 0)
(0.014048 -0.027869 0)
(0.026879 -0.027036 0)
(0.019756 -0.028811 0)
(0.027006 0.039861 0)
(0.022162 0.046840 0)
(0.014522 0.049496 0)
(0.038674 0.035595 0)
(0.034810 0.040807 0)
(0.007894 0.058249 0)
(-0.091214 0.122173 0)
(-0.119495 0.093752 0)
(0.000019 0.072403 0)
(-0.012861 0.091027 0)
(-0.031282 0.110629 0)
(-0.057821 0.138928 0)
(-0.099714 0.173370 0)
(-0.010583 -0.030799 0)
(-0.013194 -0.028413 0)
(-0.011496 -0.036487 0)
(-0.020725 -0.029432 0)
(-0.028563 -0.029857 0)
(-0.036494 -0.029966 0)
(-0.043105 -0.030684 0)
(-0.047408 -0.026966 0)
(-0.052307 -0.022891 0)
(-0.057680 -0.016471 0)
(-0.066770 0.001620 0)
(-0.064898 -0.011824 0)
(-0.083846 0.014027 0)
(-0.110679 0.031944 0)
(-0.139360 0.060961 0)
(-0.173047 0.100273 0)
(0.037578 0.020422 0)
(0.039752 0.025530 0)
(0.041283 0.030913 0)
(0.044965 0.035435 0)
(0.038892 0.004673 0)
(0.038242 0.012979 0)
(0.038597 -0.005293 0)
(0.035020 -0.019579 0)
(0.037583 -0.012513 0)
(-0.006685 -0.036932 0)
(0.000337 -0.035386 0)
(0.004138 -0.035320 0)
(0.007889 -0.033266 0)
(-0.002293 -0.039396 0)
(0.012450 -0.035628 0)
(0.016270 -0.031838 0)
(0.032038 -0.025554 0)
(0.027323 -0.029427 0)
(0.021399 -0.031908 0)
(0.030519 0.049294 0)
(0.022113 0.058752 0)
(0.044255 0.041605 0)
(0.040252 0.048910 0)
(0.019893 0.070813 0)
(-0.141170 0.141672 0)
(0.011177 0.089626 0)
(0.000947 0.119140 0)
(-0.020116 0.153686 0)
(-0.051572 0.193237 0)
(-0.113172 0.211157 0)
(-0.016657 -0.033482 0)
(-0.016006 -0.039287 0)
(-0.009492 -0.041562 0)
(-0.013209 -0.043090 0)
(-0.024151 -0.034762 0)
(-0.031019 -0.034382 0)
(-0.040709 -0.036054 0)
(-0.049885 -0.035527 0)
(-0.055378 -0.030516 0)
(-0.065996 -0.025271 0)
(-0.082601 -0.013310 0)
(-0.109852 -0.000465 0)
(-0.150138 0.017074 0)
(-0.193144 0.051917 0)
(-0.195396 0.137854 0)
(-0.375000 0.260338 0)
(-0.500000 0.500000 0)
(-0.716433 0.572096 0)
(-0.966175 0.750000 0)
(-1.500000 0.750000 0)
(0.042788 0.019180 0)
(0.047381 0.027674 0)
(0.053706 0.037501 0)
(0.044137 -0.000486 0)
(0.044256 0.010063 0)
(0.043777 -0.010128 0)
(0.037125 -0.021157 0)
(0.041961 -0.016914 0)
(-0.005344 -0.043788 0)
(0.001883 -0.040623 0)
(0.007665 -0.038661 0)
(-0.000609 -0.044571 0)
(0.012650 -0.042243 0)
(0.018964 -0.037283 0)
(0.034571 -0.029555 0)
(0.027007 -0.034712 0)
(-0.735207 0.750000 0)
(0.037196 0.061830 0)
(0.053125 0.051383 0)
(0.036817 0.083129 0)
(-0.148179 0.184906 0)
(-0.375000 0.375000 0)
(-0.126888 0.251425 0)
(0.032696 0.113609 0)
(0.021942 0.153899 0)
(0.000000 0.200000 0)
(-0.063911 0.232879 0)
(-0.519320 0.608660 0)
(-0.344537 0.500000 0)
(-0.020771 -0.040471 0)
(-0.017484 -0.044145 0)
(-0.009975 -0.048066 0)
(-0.014799 -0.048992 0)
(-0.027386 -0.042508 0)
(-0.036132 -0.042904 0)
(-0.047365 -0.044024 0)
(-0.061272 -0.041688 0)
(-0.081415 -0.038257 0)
(-0.107582 -0.032326 0)
(-0.148935 -0.022550 0)
(-0.274724 0.258860 0)
(-0.219493 0.174801 0)
(-0.200000 0.000000 0)
(-0.225291 0.086238 0)
(-0.375000 0.152956 0)
(-0.500000 0.343923 0)
(-0.575000 0.182949 0)
(-0.703123 0.401042 0)
(-0.938630 0.517126 0)
(-1.225965 0.750000 0)
(-1.500000 0.450000 0)
(0.051879 0.017203 0)
(0.059115 0.027074 0)
(0.065459 0.039954 0)
(0.052044 -0.006911 0)
(0.053641 0.004985 0)
(0.049407 -0.017623 0)
(0.041912 -0.023147 0)
(0.041616 -0.034156 0)
(-0.002859 -0.051609 0)
(0.005569 -0.047438 0)
(0.017530 -0.045366 0)
(0.012470 -0.049588 0)
(0.024719 -0.043466 0)
(0.031799 -0.041661 0)
(0.057309 -0.015349 0)
(-0.522822 0.750000 0)
(0.056894 0.071033 0)
(0.074240 0.057574 0)
(0.061590 0.101140 0)
(-0.187241 0.261954 0)
(-0.255669 0.375000 0)
(-0.085727 0.289380 0)
(0.060338 0.139483 0)
(0.051622 0.193223 0)
(-0.006544 0.243839 0)
(-0.338082 0.621648 0)
(-0.201787 0.500000 0)
(-0.042673 -0.052038 0)
(-0.021825 -0.050706 0)
(-0.012862 -0.056265 0)
(-0.030975 -0.052505 0)
(-0.053998 -0.056518 0)
(-0.072623 -0.059222 0)
(-0.500000 0.202706 0)
(-0.098993 -0.060171 0)
(-0.138288 -0.060411 0)
(-0.193154 -0.051881 0)
(-0.281918 0.149407 0)
(-0.241572 0.019527 0)
(-0.375000 0.050824 0)
(-0.599756 0.085652 0)
(-0.640907 0.255158 0)
(-0.701493 -0.017834 0)
(-0.866584 0.303635 0)
(-1.200539 0.468918 0)
(-1.500000 0.150000 0)
(0.064335 0.013835 0)
(0.071933 0.026279 0)
(0.084957 0.037515 0)
(0.066538 -0.004165 0)
(0.052701 -0.025344 0)
(0.048112 -0.030385 0)
(0.048301 -0.040429 0)
(0.041761 -0.045112 0)
(-0.004055 -0.061771 0)
(0.007380 -0.059072 0)
(0.019152 -0.053852 0)
(0.026976 -0.052792 0)
(0.035628 -0.055497 0)
(0.068108 -0.023136 0)
(-0.321870 0.750000 0)
(0.084204 0.082618 0)
(0.101429 0.058669 0)
(0.093850 0.119273 0)
(-0.144498 0.375000 0)
(-0.018574 0.302581 0)
(0.099767 0.173339 0)
(0.056163 0.240499 0)
(-0.166732 0.623462 0)
(-0.064492 0.500000 0)
(-0.039893 -0.064624 0)
(-0.020297 -0.067452 0)
(-0.057334 -0.074933 0)
(-0.082725 -0.083768 0)
(-0.500000 0.066104 0)
(-0.119450 -0.094109 0)
(-0.173085 -0.100208 0)
(-0.239963 -0.050743 0)
(-0.307748 0.040107 0)
(-0.375000 -0.050952 0)
(-0.607693 -0.026965 0)
(-0.761495 0.115444 0)
(-0.759902 -0.107768 0)
(-1.127528 0.144305 0)
(-1.500000 -0.150000 0)
(0.086122 0.012609 0)
(0.113872 0.029829 0)
(0.087428 -0.014458 0)
(0.059977 -0.038670 0)
(0.051461 -0.053815 0)
(0.001183 -0.072689 0)
(0.023265 -0.068543 0)
(0.040836 -0.067655 0)
(0.080083 -0.038831 0)
(-0.127323 0.750000 0)
(0.122213 0.092795 0)
(0.141946 0.057179 0)
(0.141171 0.141671 0)
(-0.038448 0.375000 0)
(0.062041 0.302254 0)
(0.117467 0.221817 0)
(-0.000691 0.634039 0)
(0.072806 0.500000 0)
(-0.034080 -0.084297 0)
(-0.011772 -0.090223 0)
(-0.060171 -0.103180 0)
(-0.092664 -0.123437 0)
(-0.500000 -0.069419 0)
(-0.141274 -0.141568 0)
(-0.222231 -0.119738 0)
(-0.301803 -0.050947 0)
(-0.375000 -0.152997 0)
(-0.615098 -0.179244 0)
(-0.887668 -0.020228 0)
(-0.790056 -0.227510 0)
(-1.190650 -0.180529 0)
(-1.500000 -0.450000 0)
(0.112994 -0.000311 0)
(0.150935 0.017199 0)
(0.193143 0.051921 0)
(0.108364 -0.032394 0)
(0.071861 -0.058501 0)
(0.057274 -0.074881 0)
(0.012574 -0.089073 0)
(0.037132 -0.086493 0)
(0.100108 -0.059510 0)
(0.065833 0.750000 0)
(0.173043 0.100280 0)
(0.170134 0.185533 0)
(0.067348 0.375000 0)
(0.143618 0.288707 0)
(0.174511 0.624387 0)
(0.212141 0.500000 0)
(-0.031057 -0.114293 0)
(0.000278 -0.118930 0)
(-0.058111 -0.140941 0)
(-0.099873 -0.173279 0)
(-0.500000 -0.206017 0)
(-0.185616 -0.181612 0)
(-0.289727 -0.141436 0)
(-0.375000 -0.260320 0)
(-0.687728 -0.364958 0)
(-0.937711 -0.239801 0)
(-1.196835 -0.469429 0)
(-1.500000 -0.750000 0)
(0.150219 -0.019182 0)
(0.200000 0.000000 0)
(0.233213 0.075401 0)
(0.140426 -0.060965 0)
(0.082265 -0.085297 0)
(0.059839 -0.104524 0)
(0.029004 -0.114282 0)
(0.118701 -0.093385 0)
(0.260390 0.750000 0)
(0.208007 0.133394 0)
(0.208743 0.252953 0)
(0.174544 0.375000 0)
(0.355215 0.500000 0)
(-0.020867 -0.151276 0)
(0.020800 -0.153697 0)
(-0.051694 -0.193204 0)
(-0.131796 -0.223109 0)
(-0.500000 -0.346813 0)
(-0.254307 -0.249442 0)
(-0.375000 -0.375000 0)
(-0.569064 -0.559630 0)
(-0.879504 -0.482518 0)
(-1.196858 -0.750000 0)
(0.193160 -0.051859 0)
(0.250461 0.010617 0)
(0.271282 0.099884 0)
(0.173107 -0.100170 0)
(0.092701 -0.123826 0)
(0.057062 -0.140813 0)
(0.141298 -0.141545 0)
(0.459629 0.750000 0)
(0.268062 0.170858 0)
(0.295709 0.375000 0)
(0.506297 0.500000 0)
(0.051731 -0.193194 0)
(0.000000 -0.200000 0)
(-0.065558 -0.255751 0)
(-0.159807 -0.296298 0)
(-0.500000 -0.500000 0)
(-0.264899 -0.375000 0)
(-0.457508 -0.582996 0)
(-0.645519 -0.610788 0)
(-0.927533 -0.750000 0)
(0.243952 -0.061789 0)
(0.347063 0.062353 0)
(0.216616 -0.125036 0)
(0.099907 -0.173259 0)
(0.180878 -0.174275 0)
(0.667993 0.750000 0)
(0.363425 0.210367 0)
(0.437562 0.375000 0)
(0.669046 0.500000 0)
(0.070382 -0.275931 0)
(-0.005691 -0.278082 0)
(-0.100511 -0.301402 0)
(-0.161352 -0.375000 0)
(-0.340505 -0.500000 0)
(-0.475594 -0.674475 0)
(-0.694949 -0.750000 0)
(0.327251 -0.091525 0)
(0.468179 0.015429 0)
(0.276279 -0.181136 0)
(0.138698 -0.221202 0)
(0.219161 -0.203618 0)
(0.136126 -0.311873 0)
(0.882755 0.750000 0)
(0.468158 0.191344 0)
(0.625000 0.375000 0)
(0.836570 0.500000 0)
(0.625000 -0.006997 0)
(0.034607 -0.375000 0)
(-0.063095 -0.375000 0)
(-0.197214 -0.500000 0)
(-0.291913 -0.646130 0)
(-0.464861 -0.750000 0)
(0.437825 -0.177077 0)
(0.324920 -0.259962 0)
(0.205781 -0.272867 0)
(0.132408 -0.375000 0)
(0.924569 0.621939 0)
(1.109883 0.750000 0)
(0.625000 0.174935 0)
(0.814026 0.319804 0)
(1.009705 0.500000 0)
(0.781677 -0.053533 0)
(0.625000 -0.186360 0)
(0.077745 -0.500000 0)
(-0.059679 -0.500000 0)
(-0.184943 -0.568319 0)
(-0.245446 -0.750000 0)
(0.217033 -0.500000 0)
(0.465448 -0.375000 0)
(0.342352 -0.375000 0)
(0.234198 -0.375000 0)
(1.090004 0.602554 0)
(1.359374 0.750000 0)
(0.787780 0.136863 0)
(1.006891 0.286805 0)
(1.230054 0.500000 0)
(0.901752 -0.108490 0)
(0.712626 -0.181513 0)
(0.625000 -0.375000 0)
(-0.002886 -0.648077 0)
(-0.030808 -0.750000 0)
(0.359997 -0.500000 0)
(1.320538 0.622681 0)
(1.629825 0.750000 0)
(1.500000 0.500000 0)
(0.965592 0.079703 0)
(1.233875 0.257998 0)
(1.002853 -0.143726 0)
(0.811407 -0.343503 0)
(0.551557 -0.440880 0)
(0.183452 -0.750000 0)
(0.513644 -0.500000 0)
(1.903860 0.750000 0)
(1.593378 0.576813 0)
(1.500000 0.250000 0)
(1.184448 -0.018215 0)
(0.996993 -0.340743 0)
(0.687251 -0.500000 0)
(0.401760 -0.750000 0)
(1.824149 0.585786 0)
(2.177895 0.750000 0)
(1.730992 0.317856 0)
(1.500000 0.000000 0)
(1.237998 -0.330801 0)
(0.910980 -0.500000 0)
(0.635150 -0.750000 0)
(2.451930 0.750000 0)
(1.993204 0.377714 0)
(1.775881 0.055404 0)
(1.500000 -0.250000 0)
(1.193347 -0.500000 0)
(0.893669 -0.750000 0)
(2.725965 0.750000 0)
(2.403129 0.441451 0)
(2.074799 0.107392 0)
(1.789174 -0.216002 0)
(1.500000 -0.500000 0)
(1.181184 -0.750000 0)
(3.000000 0.750000 0)
(2.707729 0.446039 0)
(2.389560 0.132401 0)
(2.086495 -0.186653 0)
(1.791371 -0.483968 0)
(1.484276 -0.750000 0)
(3.000000 0.450000 0)
(2.698297 0.143294 0)
(2.390714 -0.167567 0)
(2.090253 -0.470337 0)
(1.787421 -0.750000 0)
(3.000000 0.150000 0)
(2.696096 -0.157063 0)
(2.392637 -0.460582 0)
(2.090566 -0.750000 0)
(3.000000 -0.150000 0)
(2.696324 -0.454406 0)
(2.393711 -0.750000 0)
(3.000000 -0.450000 0)
(2.696855 -0.750000 0)
(3.000000 -0.750000 0)
(0.000000 0.020000 1)
(-0.002676 0.020000 1)
(-0.004873 0.020127 1)
(-0.005000 0.020000 1)
(0.002676 0.020000 1)
(0.002636 0.020096 1)
(0.000000 0.020111 1)
(-0.002628 0.020116 1)
(-0.004721 0.020279 1)
(-0.004856 0.022500 1)
(-0.005000 0.022500 1)
(-0.008067 0.022500 1)
(-0.012263 0.022500 1)
(0.005000 0.020000 1)
(0.004897 0.020103 1)
(0.002588 0.020212 1)
(-0.000000 0.020244 1)
(-0.002570 0.020255 1)
(-0.004538 0.020462 1)
(-0.004684 0.022500 1)
(-0.005000 0.022644 1)
(-0.008084 0.022670 1)
(-0.012303 0.022704 1)
(-0.018003 0.022500 1)
(0.005000 0.022500 1)
(0.004872 0.022500 1)
(0.004773 0.020227 1)
(0.002530 0.020351 1)
(-0.000000 0.020404 1)
(-0.002501 0.020423 1)
(-0.004318 0.020682 1)
(-0.004477 0.022500 1)
(-0.005000 0.022816 1)
(-0.008104 0.022873 1)
(-0.025000 0.022500 1)
(-0.012352 0.022949 1)
(-0.018076 0.022742 1)
(0.008067 0.022500 1)
(0.005000 0.022644 1)
(0.004719 0.022500 1)
(0.004625 0.020375 1)
(0.000000 -0.020000 1)
(-0.002676 -0.020000 1)
(0.002676 -0.020000 1)
(0.002461 0.020517 1)
(-0.000000 0.020596 1)
(-0.002417 0.020623 1)
(-0.004055 0.020945 1)
(-0.004229 0.022500 1)
(-0.005000 0.023023 1)
(-0.008128 0.023118 1)
(-0.005000 -0.020000 1)
(-0.030000 0.017500 1)
(-0.025114 0.022775 1)
(-0.012411 0.023243 1)
(-0.018164 0.023032 1)
(-0.030000 0.000000 1)
(-0.030000 0.009842 1)
(0.012263 0.022500 1)
(0.008086 0.022694 1)
(0.005000 0.022816 1)
(0.004535 0.022500 1)
(0.004447 0.020553 1)
(-0.004896 -0.020104 1)
(0.002628 -0.020116 1)
(0.000000 -0.020110 1)
(-0.002635 -0.020098 1)
(0.005000 -0.020000 1)
(0.004873 -0.020127 1)
(0.002378 0.020717 1)
(-0.000000 0.020826 1)
(-0.002318 0.020864 1)
(-0.003739 0.021261 1)
(-0.003931 0.022500 1)
(-0.005000 0.023271 1)
(-0.008157 0.023411 1)
(-0.005000 -0.022500 1)
(-0.030000 -0.009842 1)
(-0.030304 0.017626 1)
(-0.025251 0.023106 1)
(-0.012481 0.023596 1)
(-0.018270 0.023380 1)
(-0.030342 0.000000 1)
(-0.030327 0.009907 1)
(0.018003 0.022500 1)
(0.012309 0.022732 1)
(0.008109 0.022926 1)
(0.005000 0.023022 1)
(0.004314 0.022500 1)
(0.004233 0.020767 1)
(-0.004872 -0.022500 1)
(-0.004771 -0.020229 1)
(0.002570 -0.020255 1)
(0.000000 -0.020243 1)
(-0.002586 -0.020215 1)
(0.005000 -0.022500 1)
(0.004857 -0.022500 1)
(0.004722 -0.020278 1)
(0.008067 -0.022500 1)
(0.002279 0.020957 1)
(-0.000000 0.021102 1)
(-0.002198 0.021153 1)
(-0.003360 0.021640 1)
(-0.003574 0.022500 1)
(-0.005000 0.023569 1)
(-0.008191 0.023763 1)
(-0.008067 -0.022500 1)
(-0.005000 -0.022643 1)
(-0.030347 -0.009911 1)
(-0.030000 -0.017500 1)
(-0.030668 0.017777 1)
(-0.025415 0.023503 1)
(-0.012565 0.024019 1)
(-0.018396 0.023797 1)
(-0.030753 0.000000 1)
(-0.030720 0.009985 1)
(0.003976 0.021024 1)
(0.025000 0.022500 1)
(0.018084 0.022769 1)
(0.012364 0.023010 1)
(0.008136 0.023204 1)
(0.005000 0.023271 1)
(0.004049 0.022500 1)
(-0.004718 -0.022500 1)
(-0.004621 -0.020379 1)
(0.002501 -0.020421 1)
(0.000000 -0.020402 1)
(-0.002528 -0.020356 1)
(0.004539 -0.020461 1)
(0.005000 -0.022643 1)
(0.004686 -0.022500 1)
(0.012263 -0.022500 1)
(0.008084 -0.022668 1)
(0.018003 -0.022500 1)
(0.002160 0.021245 1)
(-0.000000 0.021433 1)
(-0.002054 0.021500 1)
(-0.002905 0.022095 1)
(-0.003145 0.022500 1)
(-0.005000 0.023926 1)
(-0.008233 0.024185 1)
(-0.012263 -0.022500 1)
(-0.008086 -0.022695 1)
(-0.005000 -0.022814 1)
(-0.018003 -0.022500 1)
(-0.025000 -0.022500 1)
(-0.030764 -0.009994 1)
(-0.030337 -0.017640 1)
(-0.031106 0.017958 1)
(-0.012666 0.024527 1)
(-0.025612 0.023979 1)
(-0.018548 0.024298 1)
(-0.031246 0.000000 1)
(-0.031191 0.010079 1)
(0.030000 0.017500 1)
(0.003668 0.021332 1)
(0.003731 0.022500 1)
(0.025125 0.022801 1)
(0.018182 0.023092 1)
(0.012431 0.023344 1)
(0.008169 0.023539 1)
(0.005000 0.023568 1)
(0.030000 0.009842 1)
(0.030000 0.000000 1)
(0.030000 -0.009842 1)
(-0.004533 -0.022500 1)
(-0.004440 -0.020560 1)
(0.002418 -0.020622 1)
(0.000000 -0.020593 1)
(-0.002458 -0.020525 1)
(0.004321 -0.020679 1)
(0.004480 -0.022500 1)
(0.005000 -0.022814 1)
(0.012303 -0.022703 1)
(0.008104 -0.022871 1)
(0.025000 -0.022500 1)
(0.018076 -0.022740 1)
(0.002017 0.021590 1)
(-0.000000 0.021830 1)
(-0.001882 0.021916 1)
(-0.001603 0.022452 1)
(-0.002631 0.022500 1)
(-0.005000 0.024355 1)
(-0.008283 0.024691 1)
(-0.012310 -0.022738 1)
(-0.005000 -0.023020 1)
(-0.008109 -0.022928 1)
(-0.018087 -0.022779 1)
(-0.025129 -0.022813 1)
(-0.031264 -0.010094 1)
(-0.030742 -0.017807 1)
(-0.031631 0.018176 1)
(-0.012787 0.025137 1)
(-0.018731 0.024900 1)
(-0.025849 0.024550 1)
(-0.031837 0.000000 1)
(-0.031756 0.010191 1)
(0.003299 0.021701 1)
(0.030324 0.017634 1)
(0.003349 0.022500 1)
(0.005000 0.023925 1)
(0.025274 0.023162 1)
(0.018300 0.023479 1)
(0.012511 0.023745 1)
(0.008209 0.023940 1)
(0.030333 0.009909 1)
(0.030331 0.000000 1)
(0.030000 -0.017500 1)
(0.030317 -0.009905 1)
(-0.004311 -0.022500 1)
(-0.004224 -0.020776 1)
(0.002319 -0.020862 1)
(0.000000 -0.020822 1)
(-0.002374 -0.020728 1)
(0.004058 -0.020942 1)
(0.004234 -0.022500 1)
(0.005000 -0.023020 1)
(0.008127 -0.023113 1)
(0.012352 -0.022946 1)
(0.025114 -0.022775 1)
(0.018163 -0.023029 1)
(0.001739 0.022440 1)
(0.000987 0.022463 1)
(0.000127 0.022460 1)
(-0.001581 0.024015 1)
(-0.005000 0.024869 1)
(-0.008343 0.025299 1)
(-0.012367 -0.023023 1)
(-0.005000 -0.023266 1)
(-0.008137 -0.023208 1)
(-0.018189 -0.023114 1)
(-0.025285 -0.023188 1)
(-0.031864 -0.010213 1)
(-0.031227 -0.018008 1)
(-0.012933 0.025868 1)
(-0.032261 0.018437 1)
(-0.018950 0.025621 1)
(-0.026133 0.025235 1)
(-0.032547 0.000000 1)
(-0.032434 0.010326 1)
(0.002891 0.022500 1)
(0.030712 0.017795 1)
(0.005000 0.024354 1)
(0.008256 0.024422 1)
(0.025454 0.023596 1)
(0.018441 0.023944 1)
(0.012606 0.024226 1)
(0.030733 0.009988 1)
(0.030727 0.000000 1)
(0.030304 -0.017626 1)
(0.030698 -0.009981 1)
(-0.004045 -0.022500 1)
(-0.003965 -0.021035 1)
(0.002199 -0.021150 1)
(0.000000 -0.021097 1)
(-0.002273 -0.020972 1)
(0.003744 -0.021256 1)
(0.003938 -0.022500 1)
(0.005000 -0.023266 1)
(0.008156 -0.023404 1)
(0.012410 -0.023238 1)
(0.025251 -0.023105 1)
(0.018268 -0.023375 1)
(0.003098 0.025014 1)
(0.001394 0.024193 1)
(-0.002999 0.026214 1)
(0.000764 0.024124 1)
(-0.001015 0.025904 1)
(-0.006133 0.026609 1)
(-0.004396 0.028543 1)
(-0.009164 0.026731 1)
(-0.013726 0.027978 1)
(-0.012435 -0.023366 1)
(-0.005000 -0.023563 1)
(-0.008170 -0.023545 1)
(-0.018311 -0.023515 1)
(-0.025471 -0.023638 1)
(-0.032584 -0.010356 1)
(-0.031810 -0.018250 1)
(-0.019212 0.026487 1)
(-0.033017 0.018750 1)
(-0.026474 0.026058 1)
(-0.033399 0.000000 1)
(-0.033248 0.010488 1)
(-0.020248 0.028763 1)
(0.005000 0.024868 1)
(0.031178 0.017988 1)
(0.008313 0.025000 1)
(0.012721 0.024803 1)
(0.025669 0.024116 1)
(0.018610 0.024502 1)
(0.031213 0.010084 1)
(0.031203 0.000000 1)
(0.030669 -0.017777 1)
(0.031155 -0.010072 1)
(-0.003726 -0.022500 1)
(-0.003654 -0.021346 1)
(0.002056 -0.021496 1)
(0.000000 -0.021427 1)
(-0.002152 -0.021264 1)
(0.003366 -0.021634 1)
(0.003583 -0.022500 1)
(0.005000 -0.023562 1)
(0.008190 -0.023753 1)
(0.012479 -0.023588 1)
(0.025415 -0.023501 1)
(0.018394 -0.023791 1)
(0.005197 0.025930 1)