/*--------------------------------*- C++ -*----------------------------------*\
| =========                 |                                                 |
| \\      /  F ield         | OpenFOAM: The Open Source CFD Toolbox           |
|   \\  /    O peration     | Web:      https://www.OpenFOAM.org              |
|  \\    /   A nd           | Version:  8                                     |
|    \\/     M anipulation  |                                                 |
\*---------------------------------------------------------------------------*/
FoamFile
{
    version     2.0;
    format      ascii;
    class       dictionary;
    object      blockMeshDict;
}
// * * * * * * * * * * * * * * * * * * * * * * * * * * * * * * * * * * * * * //

convertToMeters 1;

vertices
(
(0.061262 0.019141 0)
(0.061340 0.018574 0)
(0.061418 0.018007 0)
(0.061496 0.017440 0)
(0.061574 0.016873 0)
(0.061184 0.019709 0)
(0.065417 -0.011017 0)
(0.065495 -0.011584 0)
(0.065573 -0.012151 0)
(0.065339 -0.010450 0)
(0.065256 -0.009849 0)
(0.061209 0.019701 0)
(0.061652 0.016305 0)
(0.061287 0.019136 0)
(0.061366 0.018571 0)
(0.061444 0.018005 0)
(0.061523 0.017440 0)
(0.061602 0.016874 0)
(0.061105 0.020276 0)
(0.061130 0.020266 0)
(0.065444 -0.011012 0)
(0.065651 -0.012718 0)
(0.065522 -0.011579 0)
(0.065599 -0.012145 0)
(0.065729 -0.013286 0)
(0.065808 -0.013853 0)
(0.065367 -0.010445 0)
(0.065162 -0.009167 0)
(0.065286 -0.009843 0)
(0.065055 -0.008394 0)
(0.061734 0.015710 0)
(0.061827 0.015035 0)
(0.061239 0.019691 0)
(0.061682 0.016308 0)
(0.061318 0.019130 0)
(0.061397 0.018567 0)
(0.061476 0.018004 0)
(0.061556 0.017440 0)
(0.061636 0.016875 0)
(0.061027 0.020848 0)
(0.061052 0.020833 0)
(0.061160 0.020253 0)
(0.060974 0.021402 0)
(0.065477 -0.011005 0)
(0.065677 -0.012712 0)
(0.065554 -0.011572 0)
(0.065631 -0.012138 0)
(0.065886 -0.014420 0)
(0.065964 -0.014987 0)
(0.065755 -0.013278 0)
(0.065833 -0.013844 0)
(0.064934 -0.007515 0)
(0.065402 -0.010438 0)
(0.065195 -0.009162 0)
(0.065323 -0.009837 0)
(0.065092 -0.008389 0)
(0.061933 0.014270 0)
(0.061766 0.015713 0)
(0.061862 0.015039 0)
(0.061275 0.019680 0)
(0.061717 0.016310 0)
(0.061354 0.019122 0)
(0.061434 0.018562 0)
(0.061514 0.018002 0)
(0.061594 0.017440 0)
(0.061676 0.016877 0)
(0.062053 0.013398 0)
(0.062189 0.012408 0)
(0.062344 0.011285 0)
(0.060947 0.021422 0)
(0.061082 0.020816 0)
(0.061196 0.020237 0)
(0.061363 0.021455 0)
(0.061006 0.021378 0)
(0.066042 -0.015554 0)
(0.065517 -0.010998 0)
(0.065708 -0.012704 0)
(0.065592 -0.011564 0)
(0.065669 -0.012129 0)
(0.065911 -0.014410 0)
(0.065988 -0.014976 0)
(0.065786 -0.013269 0)
(0.065863 -0.013834 0)
(0.064797 -0.006515 0)
(0.064640 -0.005381 0)
(0.064462 -0.004090 0)
(0.064975 -0.007509 0)
(0.065443 -0.010431 0)
(0.065235 -0.009155 0)
(0.065367 -0.009830 0)
(0.065136 -0.008382 0)
(0.061971 0.014274 0)
(0.061804 0.015716 0)
(0.061903 0.015043 0)
(0.061319 0.019667 0)
(0.061760 0.016313 0)
(0.061398 0.019113 0)
(0.061478 0.018557 0)
(0.061559 0.017999 0)
(0.061641 0.017440 0)
(0.061725 0.016879 0)
(0.062520 0.010006 0)
(0.062096 0.013404 0)
(0.062237 0.012415 0)
(0.062398 0.011292 0)
(0.061360 0.021479 0)
(0.061383 0.021482 0)
(0.061118 0.020795 0)
(0.061239 0.020218 0)
(0.061367 0.021426 0)
(0.061044 0.021349 0)
(0.066120 -0.016122 0)
(0.066065 -0.015542 0)
(0.065564 -0.010989 0)
(0.065746 -0.012694 0)
(0.065638 -0.011554 0)
(0.065714 -0.012119 0)
(0.065940 -0.014399 0)
(0.066017 -0.014963 0)
(0.065823 -0.013258 0)
(0.065900 -0.013822 0)
(0.066198 -0.016689 0)
(0.062720 0.008556 0)
(0.062948 0.006904 0)
(0.064842 -0.006509 0)
(0.064691 -0.005374 0)
(0.064261 -0.002625 0)
(0.063205 0.005034 0)
(0.064031 -0.000959 0)
(0.063770 0.000934 0)
(0.063483 0.003018 0)
(0.064519 -0.004082 0)
(0.065024 -0.007502 0)
(0.065493 -0.010422 0)
(0.065282 -0.009148 0)
(0.065420 -0.009821 0)
(0.065189 -0.008374 0)
(0.062017 0.014280 0)
(0.061850 0.015721 0)
(0.061953 0.015049 0)
(0.061371 0.019650 0)
(0.061811 0.016317 0)
(0.061451 0.019102 0)
(0.061532 0.018550 0)
(0.061614 0.017996 0)
(0.061697 0.017439 0)
(0.061783 0.016881 0)
(0.062580 0.010014 0)
(0.062147 0.013410 0)
(0.062295 0.012423 0)
(0.062462 0.011301 0)
(0.061307 0.021859 0)
(0.061333 0.021863 0)
(0.061412 0.021486 0)
(0.061161 0.020770 0)
(0.061291 0.020196 0)
(0.061372 0.021392 0)
(0.061089 0.021314 0)
(0.066141 -0.016107 0)
(0.066092 -0.015527 0)
(0.065621 -0.010978 0)
(0.065790 -0.012682 0)
(0.065693 -0.011543 0)
(0.065768 -0.012106 0)
(0.065976 -0.014384 0)
(0.066051 -0.014947 0)
(0.065867 -0.013245 0)
(0.065944 -0.013807 0)
(0.066218 -0.016672 0)
(0.066276 -0.017256 0)
(0.062786 0.008565 0)
(0.063018 0.006914 0)
(0.064897 -0.006500 0)
(0.064753 -0.005365 0)
(0.064322 -0.002616 0)
(0.063278 0.005044 0)
(0.064097 -0.000950 0)
(0.063840 0.000944 0)
(0.063555 0.003028 0)
(0.064586 -0.004073 0)
(0.065083 -0.007493 0)
(0.065552 -0.010412 0)
(0.065340 -0.009138 0)
(0.065483 -0.009810 0)
(0.065252 -0.008364 0)
(0.062072 0.014287 0)
(0.061904 0.015726 0)
(0.062013 0.015056 0)
(0.061433 0.019631 0)
(0.061872 0.016322 0)
(0.061515 0.019088 0)
(0.061596 0.018542 0)
(0.061679 0.017992 0)
(0.061764 0.017439 0)
(0.061853 0.016884 0)
(0.062652 0.010024 0)
(0.062208 0.013418 0)
(0.062364 0.012432 0)
(0.062540 0.011312 0)
(0.060751 0.021783 0)
(0.061304 0.021885 0)
(0.061363 0.021867 0)
(0.061447 0.021491 0)
(0.061213 0.020739 0)
(0.061353 0.020169 0)
(0.061377 0.021350 0)
(0.061144 0.021273 0)
(0.066167 -0.016090 0)
(0.066125 -0.015509 0)
(0.065689 -0.010964 0)
(0.065844 -0.012669 0)
(0.065760 -0.011529 0)
(0.065833 -0.012091 0)
(0.066019 -0.014368 0)
(0.066093 -0.014927 0)
(0.065921 -0.013230 0)
(0.065996 -0.013789 0)
(0.066242 -0.016653 0)
(0.066295 -0.017237 0)
(0.066355 -0.017823 0)
(0.066373 -0.017799 0)
(0.062865 0.008575 0)
(0.063102 0.006926 0)
(0.064963 -0.006491 0)
(0.064826 -0.005354 0)
(0.064396 -0.002606 0)
(0.063364 0.005056 0)
(0.064176 -0.000939 0)
(0.063924 0.000955 0)
(0.063641 0.003040 0)
(0.064667 -0.004061 0)
(0.065154 -0.007482 0)
(0.065623 -0.010399 0)
(0.065408 -0.009127 0)
(0.065559 -0.009797 0)
(0.065328 -0.008352 0)
(0.062138 0.014295 0)
(0.061970 0.015733 0)
(0.062084 0.015064 0)
(0.061509 0.019607 0)
(0.061946 0.016327 0)
(0.061591 0.019073 0)
(0.061673 0.018532 0)
(0.061758 0.017988 0)
(0.061845 0.017439 0)
(0.061937 0.016888 0)
(0.062738 0.010036 0)
(0.062282 0.013428 0)
(0.062446 0.012443 0)
(0.062633 0.011324 0)
(0.060122 0.021696 0)
(0.060747 0.021810 0)
(0.061299 0.021915 0)
(0.061399 0.021872 0)
(0.061488 0.021497 0)
(0.061275 0.020703 0)
(0.061428 0.020137 0)
(0.061384 0.021301 0)
(0.061210 0.021223 0)
(0.035229 0.014900 0)
(0.035150 0.015472 0)
(0.035071 0.016043 0)
(0.066197 -0.016070 0)
(0.066164 -0.015487 0)
(0.065771 -0.010949 0)
(0.065909 -0.012652 0)
(0.065839 -0.011512 0)
(0.065912 -0.012073 0)
(0.066071 -0.014347 0)
(0.066143 -0.014904 0)
(0.065985 -0.013211 0)
(0.066060 -0.013768 0)
(0.066270 -0.016629 0)
(0.066318 -0.017213 0)
(0.066767 -0.017766 0)
(0.066764 -0.017745 0)
(0.066395 -0.017769 0)
(0.062959 0.008588 0)
(0.063203 0.006939 0)
(0.065042 -0.006479 0)
(0.064914 -0.005342 0)
(0.064484 -0.002593 0)
(0.063468 0.005070 0)
(0.064271 -0.000925 0)
(0.064024 0.000969 0)
(0.063745 0.003054 0)
(0.064765 -0.004047 0)
(0.065239 -0.007470 0)
(0.065709 -0.010383 0)
(0.065491 -0.009114 0)
(0.065650 -0.009782 0)
(0.065419 -0.008338 0)
(0.034992 0.016617 0)
(0.034911 0.017210 0)
(0.062217 0.014305 0)
(0.062049 0.015740 0)
(0.062170 0.015074 0)
(0.061599 0.019579 0)
(0.062034 0.016334 0)
(0.061682 0.019053 0)
(0.061766 0.018521 0)
(0.061852 0.017982 0)
(0.061942 0.017439 0)
(0.062037 0.016892 0)
(0.062841 0.010050 0)
(0.062370 0.013440 0)
(0.062546 0.012456 0)
(0.062744 0.011340 0)
(0.059407 0.021597 0)
(0.060117 0.021727 0)
(0.060743 0.021844 0)
(0.061294 0.021952 0)
(0.061443 0.021878 0)
(0.061538 0.021503 0)
(0.058594 0.021486 0)
(0.061350 0.020660 0)
(0.061517 0.020098 0)
(0.061392 0.021241 0)
(0.061289 0.021163 0)
(0.066819 -0.018147 0)
(0.035308 0.014329 0)
(0.035386 0.013758 0)
(0.035204 0.014889 0)
(0.035126 0.015458 0)
(0.035049 0.016028 0)
(0.066234 -0.016045 0)
(0.066211 -0.015461 0)
(0.065870 -0.010930 0)
(0.065986 -0.012632 0)
(0.065935 -0.011492 0)
(0.066006 -0.012051 0)
(0.066132 -0.014323 0)
(0.066202 -0.014877 0)
(0.066061 -0.013188 0)
(0.066135 -0.013742 0)
(0.066305 -0.016601 0)
(0.066345 -0.017185 0)
(0.066788 -0.017763 0)
(0.066760 -0.017719 0)
(0.066422 -0.017734 0)
(0.066843 -0.018144 0)
(0.063072 0.008604 0)
(0.063323 0.006956 0)
(0.065137 -0.006465 0)
(0.065020 -0.005326 0)
(0.064590 -0.002578 0)
(0.063593 0.005088 0)
(0.064385 -0.000909 0)
(0.064144 0.000986 0)
(0.063869 0.003072 0)
(0.064881 -0.004031 0)
(0.065341 -0.007454 0)
(0.065812 -0.010365 0)
(0.065590 -0.009098 0)
(0.065759 -0.009764 0)
(0.065528 -0.008321 0)
(1.750000 0.213518 0)
(1.617470 0.190865 0)
(1.750000 -0.130221 0)
(1.539172 -0.233576 0)
(0.034826 0.017823 0)
(0.034972 0.016600 0)
(0.034891 0.017189 0)
(0.034806 0.017797 0)
(0.062311 0.014317 0)
(0.062143 0.015749 0)
(0.062273 0.015085 0)
(0.061763 0.019958 0)
(0.061803 0.019494 0)
(0.062140 0.016341 0)
(0.061874 0.018974 0)
(0.061960 0.018442 0)
(0.062047 0.017900 0)
(0.062146 0.017352 0)
(0.062251 0.016800 0)
(0.062966 0.010067 0)
(0.062476 0.013454 0)
(0.062665 0.012472 0)
(0.062878 0.011358 0)
(0.059402 0.021633 0)
(0.060112 0.021764 0)
(0.060737 0.021884 0)
(0.061288 0.021995 0)
(0.061496 0.021885 0)
(0.061597 0.021512 0)
(0.057673 0.021359 0)
(0.058589 0.021525 0)
(0.061440 0.020608 0)
(0.061671 0.020454 0)
(0.061402 0.021170 0)
(0.061384 0.021091 0)
(1.674960 0.232655 0)
(1.750000 0.299408 0)
(1.577968 0.245715 0)
(0.066263 -0.018223 0)
(0.066822 -0.018170 0)
(0.035282 0.014319 0)
(0.035360 0.013749 0)
(0.035465 0.013187 0)
(0.035174 0.014875 0)
(0.035097 0.015442 0)
(0.035022 0.016010 0)
(0.066278 -0.016016 0)
(0.066268 -0.015429 0)
(0.066049 -0.010782 0)
(0.066102 -0.011352 0)
(0.066079 -0.012608 0)
(0.066162 -0.011899 0)
(0.066246 -0.012450 0)
(0.066207 -0.014294 0)
(0.066274 -0.014843 0)
(0.066153 -0.013161 0)
(0.066226 -0.013712 0)
(0.066346 -0.016568 0)
(0.066378 -0.017152 0)
(0.066814 -0.017760 0)
(0.066756 -0.017687 0)
(0.066454 -0.017692 0)
(0.066871 -0.018140 0)
(0.063208 0.008623 0)
(0.063469 0.006976 0)
(0.065251 -0.006448 0)
(0.065147 -0.005308 0)
(0.064717 -0.002560 0)
(0.063742 0.005108 0)
(0.064522 -0.000890 0)
(0.064289 0.001006 0)
(0.064019 0.003092 0)
(0.065021 -0.004011 0)
(0.065463 -0.007436 0)
(0.066003 -0.010207 0)
(0.066364 -0.010481 0)
(0.065708 -0.009079 0)
(0.065977 -0.009577 0)
(0.065659 -0.008301 0)
(1.750000 -0.216102 0)
(1.500000 0.184211 0)
(1.750000 0.127590 0)
(1.594406 0.131028 0)
(1.750000 -0.044284 0)
(1.569492 -0.275512 0)
(1.654598 -0.135054 0)
(1.562467 -0.189081 0)
(1.500000 -0.236842 0)
(0.034414 0.017766 0)
(0.034947 0.016580 0)
(0.034417 0.017742 0)
(0.034867 0.017165 0)
(0.034783 0.017766 0)
(0.035015 0.018237 0)
(0.034362 0.018147 0)
(0.062425 0.014331 0)
(0.062257 0.015761 0)
(0.062396 0.015099 0)
(0.062002 0.020331 0)
(0.062110 0.019798 0)
(0.062211 0.019271 0)
(0.062380 0.016233 0)
(0.062291 0.018758 0)
(0.062312 0.018279 0)
(0.062430 0.017711 0)
(0.062577 0.017133 0)
(0.062698 0.016584 0)
(0.063114 0.010088 0)
(0.062603 0.013470 0)
(0.062808 0.012492 0)
(0.063038 0.011380 0)
(0.059396 0.021675 0)
(0.060106 0.021809 0)
(0.060731 0.021932 0)
(0.061281 0.022048 0)
(0.061559 0.021894 0)
(0.061668 0.021521 0)
(0.056626 0.021214 0)
(0.057667 0.021402 0)
(0.058582 0.021572 0)
(0.062211 0.020715 0)
(0.061538 0.020808 0)
(0.061825 0.020799 0)
(0.061414 0.021084 0)
(1.546295 0.292139 0)
(1.646735 0.299968 0)
(1.750000 0.385260 0)
(1.500000 0.236842 0)
(1.452391 0.293480 0)
(0.065633 -0.018310 0)
(0.066267 -0.018250 0)
(0.066826 -0.018199 0)
(0.035252 0.014307 0)
(0.035329 0.013739 0)
(0.035438 0.013179 0)
(0.035544 0.012616 0)
(0.035138 0.014858 0)
(0.035062 0.015423 0)
(0.034989 0.015988 0)
(0.066330 -0.015981 0)
(0.066336 -0.015392 0)
(0.066451 -0.010985 0)
(0.066463 -0.011529 0)
(0.066325 -0.013006 0)
(0.066612 -0.012539 0)
(0.066524 -0.012059 0)
(0.066296 -0.014259 0)
(0.066360 -0.014804 0)
(0.066399 -0.013565 0)
(0.066487 -0.014102 0)
(0.066395 -0.016527 0)
(0.066417 -0.017111 0)
(0.066846 -0.017755 0)
(0.066751 -0.017650 0)
(0.066492 -0.017642 0)
(0.066905 -0.018135 0)
(0.063372 0.008645 0)
(0.063643 0.007000 0)
(0.065388 -0.006428 0)
(0.065299 -0.005286 0)
(0.064870 -0.002539 0)
(0.063922 0.005133 0)
(0.064686 -0.000867 0)
(0.064462 0.001030 0)
(0.064198 0.003117 0)
(0.065189 -0.003987 0)
(0.065609 -0.007414 0)
(0.066770 -0.010641 0)
(0.066371 -0.009890 0)
(0.066835 -0.010140 0)
(0.065944 -0.008875 0)
(0.066374 -0.009278 0)
(0.065917 -0.008074 0)
(1.636703 -0.225516 0)
(1.750000 -0.301793 0)
(1.446743 0.197764 0)
(1.500000 0.131579 0)
(1.653989 0.083377 0)
(1.750000 0.041653 0)
(1.567093 0.068691 0)
(1.654818 -0.056147 0)
(1.573714 -0.328377 0)
(1.500000 -0.289474 0)
(1.572092 -0.133352 0)
(1.500000 -0.184211 0)
(1.446228 -0.245051 0)
(0.034390 0.017763 0)
(0.034917 0.016555 0)
(0.034422 0.017712 0)
(0.034839 0.017136 0)
(0.034754 0.017729 0)
(0.035755 0.018339 0)
(0.035011 0.018267 0)
(0.034335 0.018143 0)
(0.034358 0.018174 0)
(0.062562 0.014348 0)
(0.062521 0.015626 0)
(0.062687 0.014948 0)
(0.062637 0.020876 0)
(0.062538 0.020228 0)
(0.062626 0.019537 0)
(0.062690 0.019001 0)
(0.062832 0.015987 0)
(0.063162 0.016352 0)
(0.062797 0.018520 0)
(0.062880 0.017998 0)
(0.062963 0.017387 0)
(0.063026 0.016989 0)
(0.063293 0.010112 0)
(0.062756 0.013490 0)
(0.062980 0.012515 0)
(0.063231 0.011406 0)
(0.059389 0.021725 0)
(0.060099 0.021863 0)
(0.060723 0.021989 0)
(0.061272 0.022111 0)
(0.061635 0.021904 0)
(0.061754 0.021533 0)
(0.055438 0.021051 0)
(0.056619 0.021263 0)
(0.057660 0.021455 0)
(0.058575 0.021629 0)
(0.062163 0.021224 0)
(0.062612 0.021480 0)
(0.061818 0.021395 0)
(1.500000 0.289474 0)
(1.570620 0.336706 0)
(1.658505 0.387545 0)
(1.750000 0.471178 0)
(1.452218 0.343374 0)
(1.451176 0.244791 0)
(1.406981 0.297420 0)
(0.036597 0.018455 0)
(0.064919 -0.018409 0)
(0.065638 -0.018340 0)
(0.066271 -0.018281 0)
(0.066831 -0.018233 0)
(0.035215 0.014293 0)
(0.035291 0.013726 0)
(0.035405 0.013169 0)
(0.035515 0.012608 0)
(0.035628 0.012004 0)
(0.035095 0.014839 0)
(0.035021 0.015400 0)
(0.034950 0.015962 0)
(0.066394 -0.015938 0)
(0.066417 -0.015347 0)
(0.066896 -0.011658 0)
(0.066958 -0.011122 0)
(0.066704 -0.013127 0)
(0.067061 -0.012697 0)
(0.067135 -0.012117 0)
(0.066553 -0.014655 0)
(0.066606 -0.015203 0)
(0.066823 -0.013733 0)
(0.066908 -0.014323 0)
(0.066454 -0.016478 0)
(0.066464 -0.017063 0)
(0.066883 -0.017750 0)
(0.066744 -0.017605 0)
(0.066538 -0.017581 0)
(0.066946 -0.018129 0)
(0.063568 0.008672 0)
(0.063852 0.007029 0)
(0.065552 -0.006404 0)
(0.065482 -0.005260 0)
(0.065053 -0.002513 0)
(0.064137 0.005163 0)
(0.064884 -0.000839 0)
(0.064671 0.001060 0)
(0.064412 0.003147 0)
(0.065391 -0.003958 0)
(0.065898 -0.007154 0)
(0.067256 -0.010444 0)
(0.066900 -0.009525 0)
(0.067312 -0.009924 0)
(0.066387 -0.008582 0)
(0.066927 -0.008945 0)
(0.066401 -0.007730 0)
(1.656243 -0.312842 0)
(1.750000 -0.387287 0)
(1.577049 -0.393130 0)
(1.406161 0.211666 0)
(1.436148 0.147813 0)
(1.500000 0.078947 0)
(1.639558 0.026132 0)
(1.542602 0.025645 0)
(1.572249 -0.069048 0)
(1.500000 -0.342105 0)
(1.448735 -0.294852 0)
(1.394603 -0.253951 0)
(1.500000 -0.131579 0)
(1.441927 -0.194770 0)
(0.034360 0.017759 0)
(0.034881 0.016525 0)
(0.034426 0.017677 0)
(0.034805 0.017100 0)
(0.034720 0.017684 0)
(0.035751 0.018373 0)
(0.035006 0.018303 0)
(0.034302 0.018139 0)
(0.034353 0.018206 0)
(0.062882 0.014179 0)
(0.063078 0.015342 0)
(0.063279 0.014656 0)
(0.063142 0.021160 0)
(0.063158 0.020449 0)
(0.063117 0.019832 0)
(0.063236 0.019263 0)
(0.063368 0.018770 0)
(0.063515 0.015777 0)
(0.063954 0.016221 0)
(0.063702 0.016758 0)
(0.063345 0.018264 0)
(0.063435 0.017824 0)
(0.063593 0.017258 0)
(0.063507 0.010142 0)
(0.063104 0.013308 0)
(0.063383 0.012308 0)
(0.063679 0.011169 0)
(0.054088 0.020865 0)
(0.059381 0.021786 0)
(0.060090 0.021928 0)
(0.060713 0.022058 0)
(0.061262 0.022187 0)
(0.061726 0.021917 0)
(0.055430 0.021104 0)
(0.056611 0.021321 0)
(0.057651 0.021518 0)
(0.058565 0.021697 0)
(0.062685 0.021896 0)
(0.063155 0.021708 0)
(0.062255 0.021886 0)
(0.061957 0.021967 0)
(0.062575 0.022203 0)
(1.500000 0.342105 0)
(1.750000 0.559903 0)
(1.575433 0.392649 0)
(1.661051 0.468738 0)
(1.450890 0.394597 0)
(1.750000 0.750000 0)
(1.405835 0.343193 0)
(1.403753 0.251401 0)
(1.372855 0.301405 0)
(0.037551 0.018586 0)
(0.036592 0.018494 0)
(0.038637 0.018736 0)
(0.064106 -0.018521 0)
(0.064923 -0.018442 0)
(0.065642 -0.018375 0)
(0.066276 -0.018319 0)
(0.066837 -0.018274 0)
(0.035172 0.014276 0)
(0.035246 0.013711 0)
(0.035366 0.013158 0)
(0.035481 0.012599 0)
(0.035597 0.011997 0)
(0.035724 0.011310 0)
(0.035044 0.014815 0)
(0.034971 0.015372 0)
(0.034904 0.015930 0)
(0.066470 -0.015888 0)
(0.066682 -0.015738 0)
(0.067460 -0.011480 0)
(0.067682 -0.010832 0)
(0.067335 -0.013228 0)
(0.067652 -0.012545 0)
(0.067879 -0.011916 0)
(0.066960 -0.014873 0)
(0.066993 -0.015382 0)
(0.067380 -0.013934 0)
(0.067430 -0.014485 0)
(0.066525 -0.016420 0)
(0.066520 -0.017005 0)
(0.066928 -0.017744 0)
(0.066737 -0.017551 0)
(0.066593 -0.017508 0)
(0.066995 -0.018123 0)
(0.063803 0.008705 0)
(0.064103 0.007064 0)
(0.065889 -0.006098 0)
(0.065857 -0.004919 0)
(0.065273 -0.002482 0)
(0.064396 0.005199 0)
(0.065120 -0.000806 0)
(0.064920 0.001094 0)
(0.064670 0.003183 0)
(0.065801 -0.003573 0)
(0.066442 -0.006777 0)
(0.067878 -0.010139 0)
(0.067657 -0.009384 0)
(0.067135 -0.008147 0)
(0.067829 -0.008627 0)
(0.067251 -0.007171 0)
(1.660258 -0.390715 0)
(1.750000 -0.472715 0)
(1.573017 -0.458799 0)
(1.500000 -0.394737 0)
(1.363681 0.178961 0)
(1.429016 0.088995 0)
(1.500000 0.026316 0)
(1.568541 -0.017018 0)
(1.500000 -0.078947 0)
(1.449706 -0.345148 0)
(1.399179 -0.299846 0)
(1.349472 -0.265483 0)
(1.385346 -0.207495 0)
(1.436464 -0.142732 0)
(0.034325 0.017754 0)
(0.034837 0.016490 0)
(0.034432 0.017635 0)
(0.034764 0.017058 0)
(0.034680 0.017630 0)
(0.035745 0.018414 0)
(0.035000 0.018347 0)
(0.034263 0.018133 0)
(0.034348 0.018245 0)
(0.063430 0.013950 0)
(0.063693 0.015109 0)
(0.063962 0.014405 0)
(0.063738 0.021423 0)
(0.063834 0.020764 0)
(0.063875 0.020106 0)
(0.063815 0.019599 0)
(0.063961 0.019110 0)
(0.063949 0.018591 0)
(0.064370 0.015649 0)
(0.064614 0.016178 0)
(0.064459 0.016631 0)
(0.064229 0.017042 0)
(0.064173 0.018124 0)
(0.064201 0.017544 0)
(0.064138 0.009782 0)
(0.063836 0.012977 0)
(0.064168 0.011960 0)
(0.064615 0.010748 0)
(0.039866 0.018905 0)
(0.041265 0.019098 0)
(0.042852 0.019317 0)
(0.052556 0.020654 0)
(0.050818 0.020414 0)
(0.044653 0.019565 0)
(0.046674 0.019843 0)
(0.048842 0.020142 0)
(0.054080 0.020924 0)
(0.059371 0.021859 0)
(0.060079 0.022005 0)
(0.060702 0.022141 0)
(0.061249 0.022278 0)
(0.061599 0.022409 0)
(0.055422 0.021169 0)
(0.056601 0.021391 0)
(0.057641 0.021593 0)
(0.058554 0.021779 0)
(0.063114 0.022163 0)
(0.063808 0.022011 0)
(0.062155 0.022443 0)
(0.062668 0.022626 0)
(0.061731 0.022955 0)
(1.500000 0.394737 0)
(1.750000 0.652779 0)
(1.657926 0.554656 0)
(1.577335 0.461144 0)
(1.402113 0.393248 0)
(1.449161 0.447013 0)
(1.654121 0.750000 0)
(1.362172 0.338721 0)
(1.302581 0.383802 0)
(1.341760 0.264695 0)
(0.037545 0.018631 0)
(0.036585 0.018540 0)
(0.038630 0.018787 0)
(0.063185 -0.018647 0)
(0.064112 -0.018559 0)
(0.064929 -0.018482 0)
(0.065648 -0.018418 0)
(0.066282 -0.018364 0)
(0.066843 -0.018322 0)
(0.035119 0.014255 0)
(0.035832 0.010521 0)
(0.035192 0.013693 0)
(0.035320 0.013144 0)
(0.035440 0.012589 0)
(0.035561 0.011989 0)
(0.035690 0.011303 0)
(0.034982 0.014786 0)
(0.034911 0.015339 0)
(0.034848 0.015893 0)
(0.066781 -0.016312 0)
(0.067103 -0.015996 0)
(0.068170 -0.011252 0)
(0.068365 -0.010567 0)
(0.068005 -0.013612 0)
(0.068179 -0.012992 0)
(0.068387 -0.012334 0)
(0.068497 -0.011768 0)
(0.068882 -0.011403 0)
(0.067481 -0.015026 0)
(0.067567 -0.015679 0)
(0.067959 -0.014152 0)
(0.068036 -0.014698 0)
(0.068476 -0.013901 0)
(0.066709 -0.016817 0)
(0.066588 -0.016935 0)
(0.066660 -0.017421 0)
(0.066982 -0.017737 0)
(0.066728 -0.017486 0)
(0.067053 -0.018114 0)
(0.064519 0.008267 0)
(0.064876 0.006509 0)
(0.066528 -0.005670 0)
(0.066692 -0.004230 0)
(0.065717 -0.002037 0)
(0.065213 0.004293 0)
(0.065719 -0.000149 0)
(0.065539 0.001888 0)
(0.066720 -0.002814 0)
(0.067335 -0.006240 0)
(0.068376 -0.009871 0)
(0.068551 -0.009157 0)
(0.068014 -0.007827 0)
(0.069034 -0.008371 0)
(0.068401 -0.006782 0)
(1.655590 -0.469912 0)
(1.750000 -0.560951 0)
(1.564068 -0.523350 0)
(1.500000 -0.447368 0)
(1.449742 -0.396243 0)
(1.750000 -0.750000 0)
(1.276450 0.176136 0)
(1.353884 0.098282 0)
(1.426789 0.028269 0)
(1.500000 -0.026316 0)
(1.431304 -0.088241 0)
(1.400377 -0.347477 0)
(1.353404 -0.303605 0)
(1.318702 -0.275360 0)
(1.333664 -0.227017 0)
(1.372807 -0.156891 0)
(0.034282 0.017748 0)
(0.034786 0.016447 0)
(0.034439 0.017584 0)
(0.034714 0.017007 0)
(0.034630 0.017565 0)
(0.035738 0.018463 0)
(0.034993 0.018399 0)
(0.034217 0.018127 0)
(0.034342 0.018292 0)
(0.064430 0.013653 0)
(0.064618 0.015003 0)
(0.064983 0.014349 0)
(0.064450 0.021587 0)
(0.064410 0.021026 0)
(0.064515 0.020375 0)
(0.064498 0.019595 0)
(0.064612 0.018672 0)
(0.065151 0.015823 0)
(0.065047 0.016497 0)
(0.064874 0.017132 0)
(0.064808 0.017903 0)
(0.065030 0.009413 0)
(0.064885 0.012683 0)
(0.065141 0.011640 0)
(0.065835 0.010356 0)
(0.065112 0.021785 0)
(0.039858 0.018963 0)
(0.041256 0.019163 0)
(0.042843 0.019387 0)
(0.052547 0.020718 0)
(0.050808 0.020483 0)
(0.044643 0.019638 0)
(0.046663 0.019917 0)
(0.048832 0.020214 0)
(0.054070 0.020995 0)
(0.059359 0.021947 0)
(0.060066 0.022098 0)
(0.060688 0.022241 0)
(0.061109 0.022479 0)
(0.061297 0.022774 0)
(0.055411 0.021246 0)
(0.056590 0.021475 0)
(0.057628 0.021684 0)
(0.058540 0.021877 0)
(0.064688 0.022188 0)
(0.063373 0.022606 0)
(0.064105 0.022669 0)
(0.062307 0.023015 0)
(0.062949 0.023067 0)
(0.061262 0.023183 0)
(0.061734 0.023481 0)
(0.062101 0.023381 0)
(1.500000 0.447368 0)
(1.653352 0.649432 0)
(1.570484 0.538365 0)
(1.353283 0.389577 0)
(1.398316 0.446111 0)
(1.447368 0.500000 0)
(1.295244 0.441926 0)
(1.562245 0.750000 0)
(1.315174 0.326381 0)
(1.248472 0.378546 0)
(1.269393 0.248571 0)
(0.037538 0.018684 0)
(0.036578 0.018596 0)
(0.038621 0.018848 0)
(0.062138 -0.018792 0)
(0.063191 -0.018691 0)
(0.064118 -0.018605 0)
(0.064935 -0.018531 0)
(0.065655 -0.018469 0)
(0.066290 -0.018419 0)
(0.066851 -0.018381 0)
(0.039919 -0.019137 0)
(0.039997 -0.019708 0)
(0.040076 -0.020280 0)
(0.039840 -0.018566 0)
(0.039761 -0.017991 0)
(0.040155 -0.020851 0)
(0.035056 0.014230 0)
(0.035956 0.009622 0)
(0.035795 0.010514 0)
(0.035128 0.013671 0)
(0.035264 0.013128 0)
(0.035390 0.012576 0)
(0.035516 0.011978 0)
(0.035650 0.011294 0)
(0.034907 0.014751 0)
(0.034839 0.015299 0)
(0.034780 0.015848 0)
(0.067124 -0.016553 0)
(0.067626 -0.016242 0)
(0.068916 -0.010846 0)
(0.068927 -0.010268 0)
(0.068699 -0.013438 0)
(0.068996 -0.012796 0)
(0.069198 -0.011968 0)
(0.069542 -0.011221 0)
(0.068156 -0.015292 0)
(0.068237 -0.015888 0)
(0.068581 -0.014361 0)
(0.068608 -0.014871 0)
(0.069082 -0.013956 0)
(0.067085 -0.017013 0)
(0.066779 -0.017162 0)
(0.066717 -0.017408 0)
(0.067047 -0.017728 0)
(0.067124 -0.018105 0)
(0.065711 0.007612 0)
(0.066106 0.005668 0)
(0.067530 -0.004902 0)
(0.067905 -0.003533 0)
(0.066726 -0.001131 0)
(0.066405 0.003208 0)
(0.066663 0.000836 0)
(0.068123 -0.001965 0)
(0.068595 -0.005680 0)
(0.069133 -0.009714 0)
(0.069279 -0.009131 0)
(0.069773 -0.008823 0)
(0.069321 -0.007485 0)
(0.070006 -0.008136 0)
(0.069971 -0.006445 0)
(1.750000 -0.653315 0)
(1.634466 -0.563194 0)
(1.536782 -0.560144 0)
(1.500000 -0.500000 0)
(1.449330 -0.447995 0)
(1.399948 -0.397234 0)
(1.656699 -0.750000 0)
(1.201808 0.175311 0)
(1.274554 0.101755 0)
(1.350677 0.028689 0)
(1.427758 -0.031034 0)
(1.360876 -0.100383 0)
(1.352887 -0.348547 0)
(1.312928 -0.304900 0)
(1.292988 -0.255682 0)
(1.309401 -0.179917 0)
(0.034231 0.017741 0)
(0.034724 0.016396 0)
(0.034448 0.017523 0)
(0.034655 0.016947 0)
(0.034572 0.017487 0)
(0.035730 0.018522 0)
(0.034984 0.018462 0)
(0.034161 0.018119 0)
(0.034334 0.018348 0)
(0.065719 0.013484 0)
(0.065541 0.015178 0)
(0.066201 0.014390 0)
(0.065148 0.021236 0)
(0.065127 0.020687 0)
(0.065191 0.019958 0)
(0.065239 0.019174 0)
(0.065406 0.018460 0)
(0.066022 0.015842 0)
(0.065731 0.016668 0)
(0.065541 0.017619 0)
(0.066651 0.008737 0)
(0.066017 0.012384 0)
(0.066570 0.011375 0)
(0.067668 0.010004 0)
(0.065765 0.021666 0)
(0.065455 0.022325 0)
(0.039849 0.019032 0)
(0.041246 0.019240 0)
(0.042831 0.019471 0)
(0.052537 0.020795 0)
(0.050797 0.020566 0)
(0.044631 0.019727 0)
(0.046651 0.020006 0)
(0.048820 0.020301 0)
(0.054059 0.021080 0)
(0.059344 0.022052 0)
(0.060051 0.022209 0)
(0.060543 0.022429 0)
(0.060804 0.022852 0)
(0.060937 0.023400 0)
(0.055398 0.021339 0)
(0.056576 0.021575 0)
(0.057613 0.021793 0)
(0.058524 0.021994 0)
(0.064996 0.022831 0)
(0.063751 0.023195 0)
(0.064609 0.023294 0)
(0.062593 0.023594 0)
(0.063222 0.023677 0)
(0.061434 0.023831 0)
(0.062117 0.023919 0)
(1.500000 0.500000 0)
(1.544989 0.640152 0)
(1.347206 0.444342 0)
(1.394737 0.500000 0)
(1.433080 0.548853 0)
(1.241997 0.439631 0)
(1.289474 0.500000 0)
(1.474206 0.750000 0)
(1.257703 0.315751 0)
(1.191662 0.375345 0)
(1.200736 0.244174 0)
(0.037529 0.018748 0)
(0.036568 0.018663 0)
(0.038611 0.018921 0)
(0.060950 -0.018955 0)
(0.062145 -0.018842 0)
(0.063198 -0.018744 0)
(0.064125 -0.018660 0)
(0.064943 -0.018589 0)
(0.065664 -0.018530 0)
(0.066299 -0.018484 0)
(0.066861 -0.018452 0)
(0.039892 -0.019132 0)
(0.039972 -0.019700 0)
(0.040051 -0.020269 0)
(0.039673 -0.017355 0)
(0.039812 -0.018563 0)
(0.039731 -0.017989 0)
(0.040233 -0.021422 0)
(0.040207 -0.021402 0)
(0.040129 -0.020836 0)
(0.034980 0.014201 0)
(0.036097 0.008601 0)
(0.035914 0.009615 0)
(0.035750 0.010505 0)
(0.035050 0.013644 0)
(0.035196 0.013108 0)
(0.035331 0.012561 0)
(0.035463 0.011966 0)
(0.035602 0.011284 0)
(0.034818 0.014710 0)
(0.034753 0.015252 0)
(0.034699 0.015794 0)
(0.067557 -0.016785 0)
(0.067563 -0.017242 0)
(0.068188 -0.016501 0)
(0.069607 -0.010365 0)
(0.069564 -0.013334 0)
(0.069773 -0.012499 0)
(0.069994 -0.011623 0)
(0.069995 -0.010962 0)
(0.068909 -0.015386 0)
(0.068860 -0.016149 0)
(0.069261 -0.014687 0)
(0.069711 -0.014090 0)
(0.067118 -0.017413 0)
(0.067125 -0.017717 0)
(0.067209 -0.018093 0)
(0.067497 0.006917 0)
(0.068243 0.004557 0)
(0.069031 -0.004292 0)
(0.069330 -0.002997 0)
(0.068331 -0.000126 0)
(0.068316 0.002012 0)
(0.069914 -0.001218 0)
(0.070351 -0.005338 0)
(0.069927 -0.009614 0)
(0.070576 -0.008946 0)
(0.070528 -0.007321 0)
(0.070739 -0.008105 0)
(0.071354 -0.006497 0)
(1.652710 -0.661299 0)
(1.561288 -0.608611 0)
(1.492748 -0.558043 0)
(1.448718 -0.500000 0)
(1.398838 -0.448373 0)
(1.350955 -0.397430 0)
(1.567829 -0.750000 0)
(1.061386 0.118966 0)
(1.132667 0.177768 0)
(1.196991 0.104609 0)
(1.269612 0.027123 0)
(1.352765 -0.037786 0)
(1.286369 -0.118563 0)
(1.306973 -0.347305 0)
(1.271192 -0.295510 0)
(1.240880 -0.220341 0)
(0.034170 0.017733 0)
(0.034649 0.016335 0)
(0.034458 0.017449 0)
(0.034584 0.016874 0)
(0.034501 0.017394 0)
(0.035720 0.018593 0)
(0.034974 0.018537 0)
(0.034093 0.018110 0)
(0.034325 0.018415 0)
(0.066886 0.013444 0)
(0.066607 0.015256 0)
(0.067436 0.014534 0)
(0.065845 0.020973 0)
(0.065817 0.020367 0)
(0.066025 0.019745 0)
(0.066270 0.018955 0)
(0.066226 0.018211 0)
(0.066702 0.016415 0)
(0.066423 0.017418 0)
(0.068844 0.008374 0)
(0.067606 0.012381 0)
(0.068339 0.011211 0)
(0.069649 0.010212 0)
(0.070514 0.009224 0)
(0.066506 0.021466 0)
(0.066301 0.022227 0)
(0.065830 0.022956 0)
(0.039837 0.019116 0)
(0.041233 0.019334 0)
(0.042817 0.019573 0)
(0.052524 0.020887 0)
(0.050783 0.020665 0)
(0.044616 0.019833 0)
(0.046636 0.020113 0)
(0.048805 0.020405 0)
(0.054045 0.021182 0)
(0.059327 0.022178 0)
(0.059873 0.022417 0)
(0.060824 0.024012 0)
(0.060229 0.022864 0)
(0.060551 0.023398 0)
(0.055383 0.021450 0)
(0.056559 0.021696 0)
(0.057595 0.021924 0)
(0.058505 0.022135 0)
(0.065350 0.023571 0)
(0.064031 0.023862 0)
(0.064811 0.023967 0)
(0.063626 0.024423 0)
(0.061241 0.024410 0)
(0.062743 0.024272 0)
(0.061941 0.024426 0)
(1.187621 0.438118 0)
(1.476987 0.592839 0)
(1.475913 0.682463 0)
(1.342105 0.500000 0)
(1.392759 0.563036 0)
(1.236842 0.500000 0)
(1.276283 0.558197 0)
(1.389272 0.750000 0)
(1.196318 0.310994 0)
(1.133776 0.374506 0)
(1.134937 0.244271 0)
(1.067034 0.181819 0)
(0.037519 0.018825 0)
(0.036557 0.018744 0)
(0.038599 0.019009 0)
(0.041267 -0.021667 0)
(0.040527 -0.021769 0)
(0.042109 -0.021551 0)
(0.043063 -0.021420 0)
(0.044148 -0.021270 0)
(0.059600 -0.019141 0)
(0.060958 -0.019013 0)
(0.062153 -0.018902 0)
(0.063207 -0.018807 0)
(0.064135 -0.018726 0)
(0.064953 -0.018658 0)
(0.065674 -0.018604 0)
(0.066873 -0.018536 0)
(0.066310 -0.018563 0)
(0.039574 -0.016634 0)
(0.039861 -0.019125 0)
(0.039941 -0.019691 0)
(0.040020 -0.020255 0)
(0.039641 -0.017355 0)
(0.039779 -0.018558 0)
(0.039696 -0.017987 0)
(0.039821 -0.021479 0)
(0.039874 -0.021859 0)
(0.039818 -0.021455 0)
(0.040175 -0.021378 0)
(0.040098 -0.020818 0)
(0.034890 0.014165 0)
(0.034649 0.014582 0)
(0.036257 0.007440 0)
(0.036050 0.008593 0)
(0.035864 0.009606 0)
(0.034957 0.013613 0)
(0.035696 0.010495 0)
(0.035115 0.013084 0)
(0.035260 0.012542 0)
(0.035400 0.011952 0)
(0.035544 0.011272 0)
(0.034586 0.015122 0)
(0.034477 0.015667 0)
(0.034397 0.016166 0)
(0.068118 -0.017064 0)
(0.067627 -0.017739 0)
(0.068124 -0.017614 0)
(0.068785 -0.016823 0)
(0.070334 -0.013599 0)
(0.070313 -0.010462 0)
(0.070407 -0.012913 0)
(0.070565 -0.012048 0)
(0.070565 -0.011226 0)
(0.069591 -0.015224 0)
(0.069571 -0.015822 0)
(0.069468 -0.016472 0)
(0.069984 -0.014727 0)
(0.070553 -0.014199 0)
(0.067344 -0.017941 0)
(0.067212 -0.018523 0)
(0.069543 0.006594 0)
(0.070580 0.003220 0)
(0.070473 0.005006 0)
(0.070788 -0.003873 0)
(0.071129 -0.002473 0)
(0.070565 0.000934 0)
(0.071838 -0.000808 0)
(0.071749 -0.005248 0)