/*--------------------------------*- C++ -*----------------------------------*\
| =========                 |                                                 |
| \\      /  F ield         | OpenFOAM: The Open Source CFD Toolbox           |
|   \\  /    O peration     | Web:      https://www.OpenFOAM.org              |
|  \\    /   A nd           | Version:  8                                     |
|    \\/     M anipulation  |                                                 |
\*---------------------------------------------------------------------------*/
FoamFile
{
    version     2.0;
    format      ascii;
    class       dictionary;
    object      blockMeshDict;
}
// * * * * * * * * * * * * * * * * * * * * * * * * * * * * * * * * * * * * * //

convertToMeters 1;

vertices
(
(-0.098369 -0.017823 0)
(-0.098291 -0.017256 0)
(-0.098212 -0.016689 0)
(-0.098134 -0.016122 0)
(-0.098056 -0.015554 0)
(-0.097978 -0.014987 0)
(-0.097900 -0.014420 0)
(-0.098389 -0.017797 0)
(-0.098777 -0.017743 0)
(-0.097822 -0.013853 0)
(-0.097743 -0.013286 0)
(-0.098781 -0.017766 0)
(-0.098311 -0.017235 0)
(-0.098234 -0.016672 0)
(-0.098156 -0.016107 0)
(-0.098079 -0.015542 0)
(-0.098002 -0.014977 0)
(-0.097924 -0.014412 0)
(-0.098413 -0.017765 0)
(-0.098805 -0.017763 0)
(-0.098774 -0.017714 0)
(-0.097847 -0.013846 0)
(-0.097770 -0.013279 0)
(-0.097665 -0.012718 0)
(-0.098833 -0.018147 0)
(-0.098858 -0.018143 0)
(-0.098335 -0.017210 0)
(-0.098259 -0.016651 0)
(-0.098183 -0.016090 0)
(-0.098107 -0.015528 0)
(-0.098031 -0.014965 0)
(-0.097954 -0.014401 0)
(-0.098442 -0.017727 0)
(-0.098833 -0.017759 0)
(-0.098769 -0.017680 0)
(-0.097877 -0.013837 0)
(-0.097802 -0.013272 0)
(-0.097693 -0.012713 0)
(-0.097583 -0.012124 0)
(-0.098837 -0.018172 0)
(-0.098277 -0.018223 0)
(-0.098889 -0.018139 0)
(-0.098364 -0.017180 0)
(-0.098289 -0.016626 0)
(-0.098215 -0.016069 0)
(-0.098140 -0.015511 0)
(-0.098065 -0.014951 0)
(-0.097990 -0.014389 0)
(-0.098476 -0.017681 0)
(-0.098868 -0.017754 0)
(-0.098763 -0.017638 0)
(-0.097914 -0.013827 0)
(-0.097840 -0.013263 0)
(-0.097727 -0.012706 0)
(-0.097614 -0.012119 0)
(-0.097491 -0.011451 0)
(-0.098841 -0.018202 0)
(-0.098281 -0.018251 0)
(-0.097648 -0.018310 0)
(-0.098925 -0.018134 0)
(-0.098399 -0.017145 0)
(-0.098326 -0.016596 0)
(-0.098253 -0.016044 0)
(-0.098180 -0.015490 0)
(-0.098107 -0.014933 0)
(-0.098032 -0.014375 0)
(-0.098518 -0.017626 0)
(-0.098909 -0.017749 0)
(-0.098756 -0.017589 0)
(-0.097958 -0.013814 0)
(-0.097885 -0.013252 0)
(-0.097767 -0.012698 0)
(-0.097650 -0.012112 0)
(-0.097524 -0.011446 0)
(-0.097386 -0.010688 0)
(-0.098846 -0.018239 0)
(-0.098285 -0.018284 0)
(-0.097652 -0.018341 0)
(-0.096933 -0.018409 0)
(-0.098969 -0.018128 0)
(-0.098440 -0.017101 0)
(-0.098370 -0.016561 0)
(-0.098299 -0.016015 0)
(-0.098228 -0.015465 0)
(-0.098156 -0.014912 0)
(-0.098083 -0.014357 0)
(-0.098568 -0.017561 0)
(-0.098958 -0.017742 0)
(-0.098748 -0.017529 0)
(-0.098011 -0.013799 0)
(-0.097940 -0.013239 0)
(-0.097816 -0.012688 0)
(-0.097694 -0.012104 0)
(-0.097564 -0.011439 0)
(-0.097423 -0.010682 0)
(-0.097266 -0.009819 0)
(-0.093432 0.018007 0)
(-0.093510 0.017440 0)
(-0.093901 0.014604 0)
(-0.093588 0.016873 0)
(-0.093666 0.016305 0)
(-0.093823 0.015171 0)
(-0.093745 0.015738 0)
(-0.093979 0.014037 0)
(-0.094062 0.013434 0)
(-0.094156 0.012751 0)
(-0.093354 0.018574 0)
(-0.093276 0.019141 0)
(-0.096120 -0.018521 0)
(-0.098852 -0.018283 0)
(-0.098291 -0.018324 0)
(-0.097657 -0.018378 0)
(-0.096938 -0.018444 0)
(-0.099021 -0.018121 0)
(-0.098491 -0.017050 0)
(-0.098422 -0.016518 0)
(-0.098355 -0.015979 0)
(-0.098286 -0.015435 0)
(-0.098216 -0.014887 0)
(-0.098145 -0.014336 0)
(-0.098627 -0.017482 0)
(-0.099018 -0.017734 0)
(-0.098738 -0.017458 0)
(-0.098074 -0.013782 0)
(-0.098006 -0.013224 0)
(-0.097130 -0.008832 0)
(-0.097874 -0.012676 0)
(-0.097746 -0.012095 0)
(-0.097613 -0.011431 0)
(-0.097468 -0.010675 0)
(-0.097308 -0.009813 0)
(-0.093459 0.018004 0)
(-0.093537 0.017438 0)
(-0.093929 0.014606 0)
(-0.093615 0.016872 0)
(-0.093693 0.016306 0)
(-0.093850 0.015173 0)
(-0.093771 0.015739 0)
(-0.094008 0.014039 0)
(-0.094093 0.013437 0)
(-0.094263 0.011976 0)
(-0.094190 0.012754 0)
(-0.093380 0.018570 0)
(-0.093302 0.019135 0)
(-0.093198 0.019709 0)
(-0.093223 0.019700 0)
(-0.095199 -0.018647 0)
(-0.096126 -0.018560 0)
(-0.098859 -0.018335 0)
(-0.098298 -0.018372 0)
(-0.097663 -0.018423 0)
(-0.096943 -0.018486 0)
(-0.099084 -0.018112 0)
(-0.098551 -0.016988 0)
(-0.098486 -0.016466 0)
(-0.098421 -0.015936 0)
(-0.098355 -0.015399 0)
(-0.098288 -0.014857 0)
(-0.098218 -0.014311 0)
(-0.098699 -0.017387 0)
(-0.099089 -0.017724 0)
(-0.098726 -0.017373 0)
(-0.098150 -0.013760 0)
(-0.098085 -0.013205 0)
(-0.097944 -0.012662 0)
(-0.096975 -0.007711 0)
(-0.097178 -0.008825 0)
(-0.097809 -0.012084 0)
(-0.097671 -0.011422 0)
(-0.097522 -0.010667 0)
(-0.097359 -0.009805 0)
(-0.093491 0.018001 0)
(-0.093569 0.017437 0)
(-0.093963 0.014609 0)
(-0.093647 0.016872 0)
(-0.093725 0.016307 0)
(-0.093883 0.015175 0)
(-0.093804 0.015741 0)
(-0.094044 0.014043 0)
(-0.094131 0.013441 0)
(-0.094384 0.011094 0)
(-0.094301 0.011980 0)
(-0.094231 0.012759 0)
(-0.094523 0.010092 0)
(-0.093412 0.018565 0)
(-0.093333 0.019128 0)
(-0.093119 0.020276 0)
(-0.093144 0.020266 0)
(-0.093252 0.019691 0)
(-0.094152 -0.018792 0)
(-0.095205 -0.018691 0)
(-0.096132 -0.018607 0)
(-0.098868 -0.018398 0)
(-0.098305 -0.018429 0)
(-0.097671 -0.018477 0)
(-0.096950 -0.018536 0)
(-0.099160 -0.018102 0)
(-0.098623 -0.016913 0)
(-0.098561 -0.016405 0)
(-0.098500 -0.015884 0)
(-0.098438 -0.015356 0)
(-0.098373 -0.014821 0)
(-0.098307 -0.014280 0)
(-0.098775 -0.017035 0)
(-0.099175 -0.017712 0)
(-0.098241 -0.013734 0)
(-0.098179 -0.013182 0)
(-0.098027 -0.012645 0)
(-0.097885 -0.012070 0)
(-0.096800 -0.006436 0)
(-0.097030 -0.007704 0)
(-0.097235 -0.008817 0)
(-0.097740 -0.011411 0)
(-0.097587 -0.010657 0)
(-0.097420 -0.009797 0)
(-0.093529 0.017997 0)
(-0.093607 0.017435 0)
(-0.094003 0.014612 0)
(-0.093685 0.016871 0)
(-0.093763 0.016307 0)
(-0.093922 0.015178 0)
(-0.093842 0.015743 0)
(-0.094086 0.014047 0)
(-0.094176 0.013446 0)
(-0.094426 0.011100 0)
(-0.094346 0.011986 0)
(-0.094280 0.012765 0)
(-0.094679 0.008955 0)
(-0.094569 0.010098 0)
(-0.093451 0.018559 0)
(-0.093370 0.019119 0)
(-0.093041 0.020848 0)
(-0.093065 0.020833 0)
(-0.093173 0.020253 0)
(-0.093288 0.019679 0)
(-0.092987 0.021403 0)
(-0.074123 -0.021551 0)
(-0.092964 -0.018955 0)
(-0.094159 -0.018840 0)
(-0.095212 -0.018744 0)
(-0.096140 -0.018664 0)
(-0.098878 -0.018474 0)
(-0.098315 -0.018498 0)
(-0.097679 -0.018541 0)
(-0.096959 -0.018597 0)
(-0.091614 -0.019141 0)
(-0.090082 -0.019353 0)
(-0.073281 -0.021667 0)
(-0.073286 -0.021702 0)
(-0.099251 -0.018089 0)
(-0.098769 -0.016598 0)
(-0.099135 -0.016945 0)
(-0.098765 -0.016158 0)
(-0.098724 -0.015753 0)
(-0.098617 -0.015214 0)
(-0.098545 -0.014678 0)
(-0.098485 -0.014128 0)
(-0.099258 -0.017550 0)
(-0.098429 -0.013570 0)
(-0.094858 0.007660 0)
(-0.096600 -0.004989 0)
(-0.098380 -0.012994 0)
(-0.098128 -0.012625 0)
(-0.097976 -0.012054 0)
(-0.097823 -0.011397 0)
(-0.096860 -0.006428 0)
(-0.097095 -0.007695 0)
(-0.097305 -0.008807 0)
(-0.097665 -0.010646 0)
(-0.097493 -0.009786 0)
(-0.093575 0.017992 0)
(-0.093653 0.017432 0)
(-0.094052 0.014617 0)
(-0.093731 0.016871 0)
(-0.093809 0.016308 0)
(-0.093969 0.015181 0)
(-0.093888 0.015745 0)
(-0.094137 0.014052 0)
(-0.094231 0.013452 0)
(-0.094476 0.011106 0)
(-0.094400 0.011992 0)
(-0.094339 0.012772 0)
(-0.094731 0.008961 0)
(-0.094625 0.010105 0)
(-0.093496 0.018551 0)
(-0.093415 0.019109 0)
(-0.092962 0.021422 0)
(-0.093094 0.020817 0)
(-0.093208 0.020238 0)
(-0.093331 0.019665 0)
(-0.093017 0.021380 0)
(-0.093377 0.021456 0)
(-0.075077 -0.021420 0)
(-0.074129 -0.021591 0)
(-0.076163 -0.021270 0)
(-0.077392 -0.021101 0)
(-0.078791 -0.020908 0)
(-0.092971 -0.019009 0)
(-0.094167 -0.018899 0)
(-0.095221 -0.018807 0)
(-0.096149 -0.018732 0)
(-0.098891 -0.018564 0)
(-0.098326 -0.018581 0)
(-0.097690 -0.018618 0)
(-0.096969 -0.018670 0)
(-0.080378 -0.020689 0)
(-0.091623 -0.019200 0)
(-0.082179 -0.020441 0)
(-0.088344 -0.019592 0)
(-0.084200 -0.020163 0)
(-0.086368 -0.019864 0)
(-0.090091 -0.019416 0)
(-0.072541 -0.021769 0)
(-0.073292 -0.021743 0)
(-0.072546 -0.021799 0)
(-0.072247 -0.021422 0)
(-0.099298 -0.018586 0)
(-0.099456 -0.018097 0)
(-0.099573 -0.017342 0)
(-0.099124 -0.016441 0)
(-0.099408 -0.016776 0)
(-0.099126 -0.015934 0)
(-0.099005 -0.015375 0)
(-0.098950 -0.014880 0)
(-0.098867 -0.014351 0)
(-0.098838 -0.013778 0)
(-0.099736 -0.017894 0)
(-0.098788 -0.013189 0)
(-0.095060 0.006191 0)
(-0.094914 0.007668 0)
(-0.096374 -0.003342 0)
(-0.096116 -0.001477 0)
(-0.095839 0.000537 0)
(-0.095552 0.002622 0)
(-0.095290 0.004520 0)
(-0.096667 -0.004980 0)
(-0.098754 -0.012617 0)
(-0.098329 -0.012431 0)
(-0.098084 -0.012035 0)
(-0.097923 -0.011381 0)
(-0.097758 -0.010632 0)
(-0.096933 -0.006418 0)
(-0.097173 -0.007684 0)
(-0.097388 -0.008795 0)
(-0.097581 -0.009773 0)
(-0.093631 0.017987 0)
(-0.093708 0.017430 0)
(-0.094110 0.014621 0)
(-0.093785 0.016870 0)
(-0.093864 0.016310 0)
(-0.094026 0.015185 0)
(-0.093944 0.015748 0)
(-0.094198 0.014058 0)
(-0.094296 0.013459 0)
(-0.094537 0.011113 0)
(-0.094465 0.012000 0)
(-0.094410 0.012780 0)
(-0.094792 0.008969 0)
(-0.094692 0.010113 0)
(-0.093552 0.018542 0)
(-0.093469 0.019096 0)
(-0.093374 0.021479 0)
(-0.093129 0.020796 0)
(-0.093249 0.020219 0)
(-0.093383 0.019648 0)
(-0.093053 0.021352 0)
(-0.093381 0.021428 0)
(-0.093397 0.021482 0)
(-0.075084 -0.021465 0)
(-0.074135 -0.021638 0)
(-0.076170 -0.021322 0)
(-0.077400 -0.021159 0)
(-0.078800 -0.020973 0)
(-0.092980 -0.019073 0)
(-0.094176 -0.018969 0)
(-0.095232 -0.018883 0)
(-0.096161 -0.018814 0)
(-0.098813 -0.018796 0)
(-0.098340 -0.018680 0)
(-0.097703 -0.018711 0)
(-0.096981 -0.018757 0)
(-0.080388 -0.020759 0)
(-0.091632 -0.019271 0)
(-0.082189 -0.020514 0)
(-0.088353 -0.019660 0)
(-0.084210 -0.020237 0)
(-0.086378 -0.019936 0)
(-0.090101 -0.019493 0)
(-0.099119 -0.019011 0)
(-0.099575 -0.018966 0)
(-0.071888 -0.021859 0)
(-0.071891 -0.021886 0)
(-0.073299 -0.021792 0)
(-0.072551 -0.021836 0)
(-0.072168 -0.020843 0)
(-0.072088 -0.020264 0)
(-0.072008 -0.019685 0)
(-0.071928 -0.019106 0)
(-0.071835 -0.021479 0)
(-0.072222 -0.021402 0)
(-0.071848 -0.018527 0)
(-0.071769 -0.017947 0)
(-0.071689 -0.017368 0)
(-0.071609 -0.016789 0)
(-0.071529 -0.016210 0)
(-0.099813 -0.018416 0)
(-0.100124 -0.017363 0)
(-0.099923 -0.016824 0)
(-0.099608 -0.016260 0)
(-0.099544 -0.015591 0)
(-0.099475 -0.015042 0)
(-0.099399 -0.014522 0)
(-0.099325 -0.013965 0)
(-0.099323 -0.013364 0)
(-0.100302 -0.017744 0)
(-0.100167 -0.018139 0)
(-0.099255 -0.012778 0)
(-0.095122 0.006199 0)
(-0.094982 0.007677 0)
(-0.096444 -0.003333 0)
(-0.096189 -0.001467 0)
(-0.095911 0.000547 0)
(-0.095622 0.002632 0)
(-0.095357 0.004529 0)
(-0.096747 -0.004969 0)
(-0.099099 -0.012297 0)
(-0.098701 -0.012087 0)
(-0.098296 -0.011827 0)
(-0.098043 -0.011362 0)
(-0.097870 -0.010615 0)
(-0.097687 -0.009758 0)
(-0.097020 -0.006406 0)
(-0.097266 -0.007671 0)
(-0.097487 -0.008781 0)
(-0.093697 0.017980 0)
(-0.093774 0.017426 0)
(-0.094180 0.014627 0)
(-0.093851 0.016870 0)
(-0.093930 0.016311 0)
(-0.094093 0.015189 0)
(-0.094011 0.015751 0)
(-0.094271 0.014065 0)
(-0.094374 0.013467 0)
(-0.094609 0.011123 0)
(-0.094543 0.012009 0)
(-0.094495 0.012789 0)
(-0.094867 0.008979 0)
(-0.094772 0.010124 0)
(-0.093618 0.018532 0)
(-0.093533 0.019081 0)
(-0.093321 0.021859 0)
(-0.093171 0.020772 0)
(-0.093300 0.020197 0)
(-0.093445 0.019628 0)
(-0.093097 0.021319 0)
(-0.093385 0.021395 0)
(-0.093424 0.021486 0)
(-0.093346 0.021863 0)
(-0.075091 -0.021519 0)
(-0.074143 -0.021694 0)
(-0.076178 -0.021384 0)
(-0.077410 -0.021229 0)
(-0.078811 -0.021050 0)
(-0.092991 -0.019151 0)
(-0.094188 -0.019052 0)
(-0.095244 -0.018973 0)
(-0.096174 -0.018912 0)
(-0.098656 -0.019211 0)
(-0.098235 -0.018943 0)
(-0.097718 -0.018822 0)
(-0.096995 -0.018862 0)
(-0.080399 -0.020843 0)
(-0.091644 -0.019356 0)
(-0.082201 -0.020602 0)
(-0.088365 -0.019743 0)
(-0.084222 -0.020325 0)
(-0.086389 -0.020022 0)
(-0.090114 -0.019585 0)
(-0.099256 -0.019497 0)
(-0.100201 -0.018910 0)
(-0.100061 -0.019368 0)
(-0.099720 -0.019607 0)
(-0.098942 -0.019804 0)
(-0.071861 -0.021863 0)
(-0.071896 -0.021918 0)
(-0.073307 -0.021852 0)
(-0.072557 -0.021879 0)
(-0.072143 -0.020829 0)
(-0.072063 -0.020253 0)
(-0.071982 -0.019676 0)
(-0.071901 -0.019099 0)
(-0.071811 -0.021482 0)
(-0.071832 -0.021454 0)
(-0.072190 -0.021379 0)
(-0.071821 -0.018522 0)
(-0.071742 -0.017945 0)
(-0.071662 -0.017367 0)
(-0.071370 -0.015052 0)
(-0.071450 -0.015631 0)
(-0.071582 -0.016789 0)
(-0.071502 -0.016211 0)
(-0.071290 -0.014473 0)
(-0.092765 0.021783 0)
(-0.100325 -0.018438 0)
(-0.100838 -0.018852 0)
(-0.100710 -0.017356 0)
(-0.100533 -0.016847 0)
(-0.100324 -0.016310 0)
(-0.100189 -0.015743 0)
(-0.100075 -0.015210 0)
(-0.100023 -0.014679 0)
(-0.099957 -0.014149 0)
(-0.099925 -0.013570 0)
(-0.099843 -0.012970 0)
(-0.100772 -0.017960 0)
(-0.099727 -0.012228 0)
(-0.095196 0.006209 0)
(-0.095064 0.007687 0)
(-0.096529 -0.003321 0)
(-0.096277 -0.001455 0)
(-0.095998 0.000559 0)
(-0.095706 0.002643 0)
(-0.095436 0.004540 0)
(-0.096842 -0.004956 0)
(-0.099211 -0.011790 0)
(-0.098687 -0.011495 0)
(-0.098273 -0.011140 0)
(-0.098004 -0.010594 0)
(-0.097813 -0.009740 0)
(-0.097607 -0.008764 0)
(-0.097124 -0.006391 0)
(-0.097378 -0.007655 0)
(-0.093777 0.017972 0)
(-0.093853 0.017422 0)
(-0.094264 0.014634 0)
(-0.093930 0.016869 0)
(-0.094009 0.016313 0)
(-0.094175 0.015195 0)
(-0.094090 0.015754 0)
(-0.094359 0.014073 0)
(-0.094467 0.013477 0)
(-0.094695 0.011133 0)
(-0.094636 0.012021 0)
(-0.094597 0.012801 0)
(-0.094955 0.008991 0)
(-0.094868 0.010136 0)
(-0.093697 0.018519 0)
(-0.093610 0.019062 0)
(-0.093318 0.021884 0)
(-0.093222 0.020742 0)
(-0.093360 0.020171 0)
(-0.093519 0.019603 0)
(-0.093149 0.021280 0)
(-0.093391 0.021355 0)
(-0.093458 0.021490 0)
(-0.093376 0.021867 0)
(-0.075100 -0.021584 0)
(-0.074152 -0.021762 0)
(-0.076188 -0.021458 0)
(-0.077422 -0.021313 0)
(-0.078824 -0.021143 0)
(-0.093004 -0.019243 0)
(-0.098429 -0.019914 0)
(-0.094202 -0.019153 0)
(-0.095259 -0.019082 0)
(-0.096190 -0.019029 0)
(-0.098014 -0.019472 0)
(-0.097578 -0.019101 0)
(-0.097013 -0.018988 0)
(-0.080413 -0.020944 0)
(-0.091658 -0.019457 0)
(-0.082216 -0.020707 0)
(-0.088378 -0.019841 0)
(-0.084236 -0.020431 0)
(-0.086404 -0.020126 0)
(-0.090129 -0.019696 0)
(-0.099503 -0.020112 0)
(-0.100592 -0.019391 0)
(-0.100215 -0.019965 0)
(-0.098914 -0.020422 0)
(-0.071829 -0.021867 0)
(-0.071901 -0.021957 0)
(-0.073317 -0.021923 0)
(-0.072564 -0.021931 0)
(-0.072114 -0.020812 0)
(-0.072034 -0.020240 0)
(-0.071951 -0.019666 0)
(-0.071869 -0.019092 0)
(-0.071782 -0.021486 0)
(-0.071828 -0.021425 0)
(-0.072153 -0.021351 0)
(-0.071789 -0.018517 0)
(-0.071709 -0.017941 0)
(-0.071629 -0.017365 0)
(-0.071342 -0.015054 0)
(-0.071422 -0.015632 0)
(-0.071550 -0.016789 0)
(-0.071470 -0.016211 0)
(-0.071210 -0.013892 0)
(-0.071261 -0.014475 0)
(-0.092761 0.021810 0)
(-0.092136 0.021696 0)
(-0.101279 -0.019328 0)
(-0.101118 -0.018351 0)
(-0.101552 -0.018788 0)
(-0.101264 -0.017420 0)
(-0.101122 -0.016865 0)
(-0.100996 -0.016362 0)
(-0.100851 -0.015785 0)
(-0.100619 -0.015333 0)
(-0.100671 -0.014830 0)
(-0.100558 -0.014317 0)
(-0.100635 -0.013780 0)
(-0.100595 -0.013122 0)
(-0.100508 -0.012442 0)
(-0.101526 -0.017863 0)
(-0.101816 -0.017380 0)
(-0.100411 -0.011884 0)
(-0.099885 -0.011466 0)
(-0.095284 0.006221 0)
(-0.095161 0.007700 0)
(-0.096631 -0.003307 0)
(-0.096382 -0.001440 0)
(-0.096103 0.000573 0)
(-0.095807 0.002657 0)
(-0.095531 0.004553 0)
(-0.096957 -0.004940 0)
(-0.099168 -0.011167 0)
(-0.098651 -0.010838 0)
(-0.098259 -0.010343 0)
(-0.097965 -0.009718 0)
(-0.097750 -0.008744 0)
(-0.097513 -0.007637 0)
(-0.097250 -0.006374 0)
(-0.093872 0.017963 0)
(-0.093948 0.017417 0)
(-0.094365 0.014643 0)
(-0.094025 0.016868 0)
(-0.094104 0.016315 0)
(-0.094273 0.015201 0)
(-0.094186 0.015759 0)
(-0.094465 0.014084 0)
(-0.094580 0.013489 0)
(-0.094799 0.011146 0)
(-0.094749 0.012034 0)
(-0.094719 0.012815 0)
(-0.095062 0.009005 0)
(-0.094984 0.010151 0)
(-0.093792 0.018503 0)
(-0.093703 0.019041 0)
(-0.093314 0.021914 0)
(-0.093282 0.020707 0)
(-0.093432 0.020139 0)
(-0.093609 0.019574 0)
(-0.093212 0.021232 0)
(-0.093397 0.021307 0)
(-0.093498 0.021496 0)
(-0.093411 0.021872 0)
(-0.075111 -0.021662 0)
(-0.074164 -0.021844 0)
(-0.076201 -0.021547 0)
(-0.077436 -0.021413 0)
(-0.078839 -0.021255 0)
(-0.093019 -0.019355 0)
(-0.098271 -0.020546 0)
(-0.097774 -0.020031 0)
(-0.094218 -0.019274 0)
(-0.095277 -0.019213 0)
(-0.096210 -0.019171 0)
(-0.097360 -0.019635 0)
(-0.096862 -0.019298 0)
(-0.080430 -0.021065 0)
(-0.091675 -0.019580 0)
(-0.082233 -0.020833 0)
(-0.088395 -0.019959 0)
(-0.084254 -0.020558 0)
(-0.086421 -0.020250 0)
(-0.090148 -0.019828 0)
(-0.099453 -0.020788 0)
(-0.100042 -0.020631 0)
(-0.100979 -0.019919 0)
(-0.100724 -0.020518 0)
(-0.098928 -0.021087 0)
(-0.099378 -0.021365 0)
(-0.071790 -0.021873 0)
(-0.071908 -0.022004 0)
(-0.073328 -0.022008 0)
(-0.072572 -0.021994 0)
(-0.072079 -0.020791 0)
(-0.071999 -0.020225 0)
(-0.071914 -0.019654 0)
(-0.071831 -0.019083 0)
(-0.071746 -0.021491 0)
(-0.071823 -0.021390 0)
(-0.072109 -0.021317 0)
(-0.071750 -0.018511 0)
(-0.071670 -0.017937 0)
(-0.071590 -0.017363 0)
(-0.071309 -0.015056 0)
(-0.071389 -0.015634 0)
(-0.071511 -0.016788 0)
(-0.071431 -0.016212 0)
(-0.071123 -0.013258 0)
(-0.071180 -0.013895 0)
(-0.071227 -0.014478 0)
(-0.067089 0.016019 0)
(-0.067169 0.015440 0)
(-0.067248 0.014861 0)
(-0.067328 0.014282 0)
(-0.067408 0.013703 0)
(-0.067488 0.013124 0)
(-0.091421 0.021597 0)
(-0.092757 0.021842 0)
(-0.092131 0.021726 0)
(-0.101680 -0.019777 0)
(-0.101896 -0.019246 0)
(-0.101839 -0.018262 0)
(-0.102230 -0.018768 0)
(-0.101712 -0.016938 0)
(-0.101627 -0.016459 0)
(-0.101538 -0.015842 0)
(-0.101207 -0.012776 0)
(-0.101289 -0.015121 0)
(-0.101317 -0.014207 0)
(-0.101198 -0.013452 0)
(-0.101220 -0.011955 0)
(-0.102137 -0.017728 0)
(-0.102346 -0.017126 0)
(-0.100754 -0.011193 0)
(-0.099930 -0.010817 0)
(-0.095391 0.006235 0)
(-0.095279 0.007716 0)
(-0.096754 -0.003290 0)
(-0.096507 -0.001423 0)
(-0.096228 0.000590 0)
(-0.095928 0.002674 0)
(-0.095646 0.004568 0)
(-0.097095 -0.004921 0)
(-0.099315 -0.010283 0)
(-0.098738 -0.009944 0)
(-0.098260 -0.009424 0)
(-0.097922 -0.008720 0)
(-0.097675 -0.007614 0)
(-0.097400 -0.006353 0)
(-0.093990 0.018410 0)
(-0.094064 0.017870 0)
(-0.094150 0.017320 0)
(-0.094594 0.014532 0)
(-0.094488 0.015101 0)
(-0.094230 0.016762 0)
(-0.094303 0.016216 0)
(-0.094389 0.015658 0)
(-0.094713 0.013962 0)
(-0.094977 0.014314 0)
(-0.094849 0.013362 0)
(-0.094924 0.011162 0)
(-0.094883 0.012051 0)
(-0.095003 0.012681 0)
(-0.095190 0.009022 0)
(-0.095123 0.010169 0)
(-0.093901 0.018962 0)
(-0.093848 0.019486 0)
(-0.093309 0.021949 0)
(-0.093355 0.020665 0)
(-0.093519 0.020100 0)
(-0.093766 0.020036 0)
(-0.093288 0.021175 0)
(-0.093405 0.021250 0)
(-0.093545 0.021503 0)
(-0.093454 0.021878 0)
(-0.075124 -0.021756 0)
(-0.074177 -0.021942 0)
(-0.076215 -0.021654 0)
(-0.077452 -0.021534 0)
(-0.078858 -0.021389 0)
(-0.093037 -0.019488 0)
(-0.098313 -0.021354 0)
(-0.097731 -0.020900 0)
(-0.097166 -0.020415 0)
(-0.094238 -0.019419 0)
(-0.095299 -0.019370 0)
(-0.096035 -0.019509 0)
(-0.096608 -0.019907 0)
(-0.080450 -0.021209 0)
(-0.091695 -0.019726 0)
(-0.082254 -0.020984 0)
(-0.088414 -0.020101 0)
(-0.084275 -0.020710 0)
(-0.086441 -0.020399 0)
(-0.090169 -0.019987 0)
(-0.099921 -0.021290 0)
(-0.100555 -0.021189 0)
(-0.101491 -0.020436 0)
(-0.101274 -0.021008 0)
(-0.102198 -0.020297 0)
(-0.098974 -0.021684 0)
(-0.098465 -0.021983 0)
(-0.099630 -0.021966 0)
(-0.071743 -0.021879 0)
(-0.071915 -0.022059 0)
(-0.073343 -0.022111 0)
(-0.072583 -0.022069 0)
(-0.072036 -0.020767 0)
(-0.071956 -0.020206 0)
(-0.071870 -0.019640 0)
(-0.071784 -0.019072 0)
(-0.071704 -0.021497 0)
(-0.071817 -0.021348 0)
(-0.072055 -0.021276 0)
(-0.071703 -0.018503 0)
(-0.071623 -0.017933 0)
(-0.071544 -0.017361 0)
(-0.071269 -0.015059 0)
(-0.071350 -0.015636 0)
(-0.071464 -0.016788 0)
(-0.071384 -0.016213 0)
(-0.071023 -0.012535 0)
(-0.071090 -0.013262 0)
(-0.071144 -0.013899 0)
(-0.071186 -0.014482 0)
(-0.067009 0.016601 0)
(-0.067066 0.016004 0)
(-0.067145 0.015428 0)
(-0.067224 0.014851 0)
(-0.067303 0.014273 0)
(-0.067568 0.012544 0)
(-0.067382 0.013695 0)
(-0.067461 0.013117 0)
(-0.066926 0.017201 0)
(-0.090608 0.021486 0)
(-0.091416 0.021631 0)
(-0.092752 0.021881 0)
(-0.092127 0.021762 0)
(-0.102490 -0.019490 0)
(-0.102967 -0.020066 0)
(-0.101591 -0.011109 0)
(-0.102580 -0.018161 0)
(-0.103022 -0.018744 0)
(-0.102329 -0.016509 0)
(-0.102250 -0.015923 0)
(-0.102076 -0.015258 0)
(-0.101766 -0.013031 0)
(-0.101739 -0.012344 0)
(-0.101954 -0.014594 0)
(-0.102050 -0.013655 0)
(-0.102138 -0.011674 0)
(-0.102880 -0.017487 0)
(-0.102993 -0.016750 0)
(-0.101029 -0.010395 0)
(-0.100399 -0.009831 0)
(-0.095519 0.006252 0)
(-0.095419 0.007735 0)
(-0.096901 -0.003270 0)
(-0.096659 -0.001402 0)
(-0.096378 0.000611 0)
(-0.096073 0.002693 0)
(-0.095783 0.004587 0)
(-0.097260 -0.004899 0)
(-0.099471 -0.009473 0)
(-0.098818 -0.008964 0)
(-0.098264 -0.008392 0)
(-0.097869 -0.007587 0)
(-0.097580 -0.006328 0)
(-0.094319 0.018658 0)
(-0.094423 0.018111 0)
(-0.094505 0.017574 0)
(-0.094590 0.017031 0)
(-0.094918 0.014831 0)
(-0.094812 0.015384 0)
(-0.094659 0.016486 0)
(-0.094731 0.015912 0)
(-0.095327 0.014551 0)
(-0.095543 0.014116 0)
(-0.095192 0.013748 0)
(-0.095343 0.013154 0)
(-0.095074 0.011181 0)
(-0.095200 0.011901 0)
(-0.095465 0.012518 0)
(-0.095344 0.009042 0)
(-0.095289 0.010190 0)
(-0.094250 0.019247 0)
(-0.094663 0.018902 0)
(-0.094182 0.019804 0)
(-0.093303 0.021992 0)
(-0.093442 0.020614 0)
(-0.093626 0.020333 0)
(-0.093983 0.020364 0)
(-0.093378 0.021106 0)
(-0.093415 0.021181 0)
(-0.093603 0.021510 0)
(-0.093505 0.021885 0)
(-0.075139 -0.021868 0)
(-0.074193 -0.022059 0)
(-0.076233 -0.021783 0)
(-0.077472 -0.021679 0)
(-0.078880 -0.021550 0)
(-0.093059 -0.019648 0)
(-0.097823 -0.021785 0)
(-0.097093 -0.021247 0)
(-0.096429 -0.020772 0)
(-0.094262 -0.019593 0)
(-0.095094 -0.019761 0)
(-0.095761 -0.020225 0)
(-0.080474 -0.021383 0)
(-0.091719 -0.019902 0)
(-0.082279 -0.021166 0)
(-0.088438 -0.020271 0)
(-0.084300 -0.020893 0)
(-0.086466 -0.020578 0)
(-0.090196 -0.020178 0)
(-0.100478 -0.021765 0)
(-0.100329 -0.022382 0)
(-0.101258 -0.021659 0)
(-0.102041 -0.021172 0)
(-0.102904 -0.020796 0)
(-0.098955 -0.022408 0)
(-0.098207 -0.022493 0)
(-0.099696 -0.022779 0)
(-0.071688 -0.021887 0)
(-0.073360 -0.022234 0)
(-0.071925 -0.022126 0)
(-0.072595 -0.022159 0)
(-0.071986 -0.020737 0)
(-0.071905 -0.020183 0)
(-0.071817 -0.019622 0)
(-0.071729 -0.019059 0)
(-0.071654 -0.021504 0)
(-0.071810 -0.021297 0)
(-0.071990 -0.021227 0)
(-0.071646 -0.018494 0)
(-0.071567 -0.017927 0)
(-0.071487 -0.017358 0)
(-0.071221 -0.015062 0)
(-0.071303 -0.015638 0)
(-0.071408 -0.016787 0)
(-0.071328 -0.016214 0)
(-0.070910 -0.011712 0)
(-0.070987 -0.012540 0)
(-0.071051 -0.013266 0)
(-0.071100 -0.013903 0)
(-0.071136 -0.014486 0)
(-0.067654 0.011915 0)
(-0.066986 0.016583 0)
(-0.067038 0.015986 0)
(-0.067117 0.015413 0)
(-0.067195 0.014838 0)
(-0.067273 0.014263 0)
(-0.067539 0.012538 0)
(-0.067351 0.013687 0)
(-0.067428 0.013110 0)
(-0.066906 0.017180 0)
(-0.066840 0.017823 0)
(-0.066821 0.017798 0)
(-0.089687 0.021359 0)
(-0.090603 0.021524 0)
(-0.091411 0.021672 0)
(-0.092745 0.021928 0)
(-0.092121 0.021805 0)
(-0.103400 -0.019445 0)
(-0.103797 -0.020296 0)
(-0.101945 -0.010252 0)
(-0.102419 -0.010825 0)
(-0.103440 -0.017978 0)
(-0.103947 -0.018637 0)
(-0.103006 -0.016024 0)
(-0.102866 -0.015317 0)
(-0.102715 -0.014740 0)
(-0.102448 -0.012824 0)
(-0.102571 -0.012154 0)
(-0.102776 -0.014094 0)
(-0.102862 -0.013321 0)
(-0.102988 -0.011515 0)
(-0.103749 -0.017123 0)
(-0.103788 -0.016291 0)
(-0.101602 -0.009550 0)
(-0.100495 -0.008986 0)
(-0.095672 0.006273 0)
(-0.095588 0.007757 0)
(-0.097077 -0.003246 0)
(-0.096840 -0.001378 0)
(-0.096558 0.000635 0)
(-0.096248 0.002717 0)
(-0.095948 0.004609 0)
(-0.097458 -0.004871 0)
(-0.099692 -0.008361 0)
(-0.098906 -0.007877 0)
(-0.098255 -0.007221 0)
(-0.097797 -0.006298 0)
(-0.094806 0.017822 0)
(-0.094854 0.018334 0)
(-0.094990 0.016747 0)
(-0.095082 0.017297 0)
(-0.095138 0.015628 0)
(-0.095393 0.015102 0)
(-0.095256 0.016182 0)
(-0.095813 0.014607 0)
(-0.096177 0.014053 0)
(-0.095726 0.013580 0)
(-0.095913 0.012953 0)
(-0.095433 0.011007 0)
(-0.095761 0.011690 0)
(-0.096272 0.012238 0)
(-0.095528 0.009066 0)
(-0.095693 0.009991 0)
(-0.095235 0.018879 0)
(-0.094822 0.019505 0)
(-0.094536 0.020203 0)
(-0.094488 0.020648 0)
(-0.095135 0.020595 0)
(-0.093296 0.022043 0)
(-0.093483 0.020661 0)
(-0.093794 0.020659 0)
(-0.094103 0.020837 0)
(-0.093426 0.021098 0)
(-0.093672 0.021520 0)
(-0.093566 0.021893 0)
(-0.075158 -0.022003 0)
(-0.074213 -0.022200 0)
(-0.076254 -0.021937 0)
(-0.077496 -0.021853 0)
(-0.078906 -0.021743 0)
(-0.093086 -0.019841 0)
(-0.097939 -0.023054 0)
(-0.097253 -0.022461 0)
(-0.096351 -0.021887 0)
(-0.095523 -0.021270 0)
(-0.094031 -0.020053 0)
(-0.094855 -0.020478 0)
(-0.080503 -0.021592 0)
(-0.091748 -0.020113 0)
(-0.082309 -0.021384 0)
(-0.088466 -0.020476 0)
(-0.084330 -0.021113 0)
(-0.086495 -0.020792 0)
(-0.090227 -0.020407 0)
(-0.100621 -0.023035 0)
(-0.101116 -0.022411 0)
(-0.102010 -0.022205 0)
(-0.102894 -0.021722 0)
(-0.103884 -0.021246 0)
(-0.098809 -0.023265 0)
(-0.098131 -0.023629 0)
(-0.099774 -0.023614 0)
(-0.073592 -0.022470 0)
(-0.071621 -0.021896 0)
(-0.072832 -0.022470 0)
(-0.072610 -0.022268 0)
(-0.071936 -0.022207 0)
(-0.071925 -0.020702 0)
(-0.071844 -0.020157 0)
(-0.071753 -0.019601 0)
(-0.071662 -0.019043 0)
(-0.071593 -0.021512 0)
(-0.071802 -0.021237 0)
(-0.071913 -0.021169 0)
(-0.071579 -0.018483 0)
(-0.071500 -0.017920 0)
(-0.071420 -0.017354 0)
(-0.072598 -0.022903 0)
(-0.071163 -0.015066 0)
(-0.071246 -0.015641 0)
(-0.071340 -0.016786 0)
(-0.071260 -0.016216 0)
(-0.070780 -0.010773 0)
(-0.070870 -0.011716 0)
(-0.070945 -0.012544 0)
(-0.071004 -0.013271 0)
(-0.071048 -0.013908 0)
(-0.071077 -0.014491 0)
(-0.067753 0.011198 0)
(-0.067623 0.011909 0)
(-0.066960 0.016561 0)
(-0.067005 0.015965 0)
(-0.067083 0.015395 0)
(-0.067160 0.014824 0)
(-0.067237 0.014251 0)
(-0.067504 0.012531 0)
(-0.067314 0.013676 0)
(-0.067389 0.013100 0)
(-0.066881 0.017155 0)
(-0.066428 0.017766 0)
(-0.066431 0.017742 0)
(-0.066799 0.017768 0)
(-0.088640 0.021214 0)
(-0.089681 0.021402 0)
(-0.090597 0.021570 0)
(-0.091404 0.021720 0)
(-0.092737 0.021983 0)
(-0.092113 0.021857 0)
(-0.104403 -0.019524 0)
(-0.104956 -0.020536 0)
(-0.102705 -0.009710 0)
(-0.103404 -0.010606 0)
(-0.104457 -0.017698 0)
(-0.105029 -0.018559 0)
(-0.103666 -0.015499 0)
(-0.103606 -0.014573 0)
(-0.104456 -0.015826 0)
(-0.103352 -0.012534 0)
(-0.103611 -0.013559 0)
(-0.104036 -0.011594 0)
(-0.104772 -0.016620 0)
(-0.101961 -0.008620 0)
(-0.100955 -0.007789 0)
(-0.095856 0.006297 0)
(-0.095791 0.007784 0)
(-0.097289 -0.003217 0)
(-0.097057 -0.001348 0)
(-0.096775 0.000665 0)
(-0.096457 0.002745 0)
(-0.096146 0.004636 0)
(-0.097696 -0.004839 0)
(-0.099837 -0.007187 0)
(-0.099033 -0.006608 0)
(-0.098251 -0.005853 0)
(-0.095372 0.017839 0)
(-0.095576 0.018373 0)
(-0.095595 0.016714 0)
(-0.095853 0.017281 0)
(-0.095705 0.015625 0)
(-0.096036 0.015091 0)
(-0.096079 0.016145 0)
(-0.096494 0.014548 0)
(-0.096816 0.014173 0)
(-0.096531 0.013555 0)
(-0.096829 0.012822 0)
(-0.096098 0.010730 0)
(-0.096689 0.011319 0)
(-0.097422 0.012032 0)
(-0.095974 0.008843 0)
(-0.096471 0.009683 0)
(-0.095961 0.018935 0)
(-0.095654 0.019455 0)
(-0.095364 0.020040 0)
(-0.095700 0.020437 0)
(-0.094614 0.021195 0)
(-0.095043 0.021002 0)
(-0.095633 0.020982 0)
(-0.093287 0.022104 0)
(-0.093800 0.021118 0)
(-0.094200 0.021354 0)
(-0.093755 0.021531 0)
(-0.093640 0.021903 0)
(-0.075180 -0.022165 0)
(-0.074477 -0.022469 0)
(-0.076280 -0.022122 0)
(-0.077525 -0.022062 0)
(-0.078938 -0.021974 0)
(-0.092844 -0.020311 0)
(-0.097286 -0.023416 0)
(-0.097686 -0.024127 0)
(-0.096385 -0.023078 0)
(-0.095411 -0.022487 0)
(-0.094410 -0.021670 0)
(-0.093638 -0.020930 0)
(-0.080537 -0.021842 0)
(-0.091465 -0.020637 0)
(-0.082345 -0.021645 0)
(-0.088499 -0.020721 0)
(-0.084367 -0.021376 0)
(-0.086531 -0.021049 0)
(-0.089763 -0.021161 0)
(-0.100772 -0.023876 0)
(-0.101632 -0.023285 0)
(-0.102815 -0.022949 0)
(-0.103995 -0.022332 0)
(-0.104873 -0.021795 0)
(-0.105856 -0.021647 0)
(-0.097626 -0.024860 0)
(-0.098682 -0.024429 0)
(-0.100145 -0.024649 0)
(-0.073202 -0.022880 0)
(-0.073956 -0.022906 0)
(-0.071540 -0.021907 0)
(-0.072172 -0.022487 0)
(-0.071949 -0.022303 0)
(-0.072055 -0.022814 0)
(-0.071852 -0.020660 0)
(-0.071771 -0.020124 0)
(-0.071676 -0.019576 0)
(-0.071582 -0.019024 0)
(-0.071520 -0.021522 0)
(-0.071820 -0.021099 0)
(-0.071792 -0.021164 0)
(-0.071498 -0.018470 0)
(-0.071419 -0.017912 0)
(-0.071339 -0.017350 0)
(-0.072972 -0.023430 0)
(-0.072388 -0.023357 0)
(-0.071811 -0.023029 0)
(-0.071094 -0.015071 0)
(-0.071178 -0.015644 0)
(-0.071259 -0.016785 0)
(-0.071179 -0.016217 0)
(-0.070633 -0.009704 0)
(-0.070736 -0.010779 0)
(-0.070822 -0.011722 0)
(-0.070893 -0.012550 0)
(-0.070948 -0.013277 0)
(-0.070985 -0.013914 0)
(-0.071005 -0.014497 0)
(-0.067866 0.010380 0)
(-0.067718 0.011192 0)
(-0.067585 0.011902 0)
(-0.067994 0.009450 0)
(-0.066928 0.016535 0)
(-0.066966 0.015939 0)
(-0.067042 0.015374 0)
(-0.067118 0.014806 0)
(-0.067194 0.014236 0)
(-0.067462 0.012523 0)
(-0.067269 0.013664 0)
(-0.067343 0.013089 0)
(-0.067029 0.018237 0)
(-0.066852 0.017125 0)
(-0.066376 0.018147 0)
(-0.066403 0.017763 0)
(-0.066435 0.017713 0)
(-0.066771 0.017732 0)
(-0.087452 0.021051 0)
(-0.088633 0.021264 0)
(-0.089674 0.021455 0)
(-0.090589 0.021625 0)
(-0.091396 0.021779 0)
(-0.092728 0.022051 0)
(-0.092105 0.021919 0)
(-0.105601 -0.019513 0)
(-0.106319 -0.020455 0)
(-0.103296 -0.008589 0)
(-0.104704 -0.010537 0)
(-0.103944 -0.009510 0)
(-0.105529 -0.017449 0)
(-0.106340 -0.018444 0)
(-0.104551 -0.015005 0)