/*--------------------------------*- C++ -*----------------------------------*\
| =========                 |                                                 |
| \\      /  F ield         | OpenFOAM: The Open Source CFD Toolbox           |
|   \\  /    O peration     | Web:      https://www.OpenFOAM.org              |
|  \\    /   A nd           | Version:  8                                     |
|    \\/     M anipulation  |                                                 |
\*---------------------------------------------------------------------------*/
FoamFile
{
    version     2.0;
    format      ascii;
    class       dictionary;
    object      blockMeshDict;
}
// * * * * * * * * * * * * * * * * * * * * * * * * * * * * * * * * * * * * * //

convertToMeters 1;

vertices
(
(0.061418 0.036154 0)
(0.061496 0.035587 0)
(0.061574 0.035019 0)
(0.061340 0.036721 0)
(0.061652 0.034452 0)
(0.061444 0.036152 0)
(0.061522 0.035587 0)
(0.061601 0.035020 0)
(0.061262 0.037288 0)
(0.065256 0.008298 0)
(0.065339 0.007697 0)
(0.065417 0.007130 0)
(0.065495 0.006563 0)
(0.065573 0.005996 0)
(0.065651 0.005428 0)
(0.065729 0.004861 0)
(0.061365 0.036718 0)
(0.061734 0.033856 0)
(0.061681 0.034454 0)
(0.061827 0.033182 0)
(0.061475 0.036151 0)
(0.061554 0.035586 0)
(0.061634 0.035022 0)
(0.061933 0.032416 0)
(0.061287 0.037283 0)
(0.061184 0.037855 0)
(0.065162 0.008980 0)
(0.065287 0.008303 0)
(0.065808 0.004294 0)
(0.065368 0.007702 0)
(0.065444 0.007135 0)
(0.065522 0.006568 0)
(0.065599 0.006002 0)
(0.065677 0.005435 0)
(0.065755 0.004869 0)
(0.061396 0.036714 0)
(0.061765 0.033859 0)
(0.061715 0.034457 0)
(0.061861 0.033185 0)
(0.061512 0.036148 0)
(0.061592 0.035586 0)
(0.061673 0.035023 0)
(0.062053 0.031545 0)
(0.061971 0.032421 0)
(0.061209 0.037848 0)
(0.061318 0.037276 0)
(0.061105 0.038423 0)
(0.062189 0.030555 0)
(0.065055 0.009753 0)
(0.064934 0.010631 0)
(0.065196 0.008985 0)
(0.065324 0.008310 0)
(0.065886 0.003727 0)
(0.065833 0.004302 0)
(0.065964 0.003160 0)
(0.065402 0.007708 0)
(0.065477 0.007142 0)
(0.065554 0.006575 0)
(0.065630 0.006009 0)
(0.065708 0.005443 0)
(0.065785 0.004878 0)
(0.061433 0.036709 0)
(0.061802 0.033863 0)
(0.061756 0.034460 0)
(0.061902 0.033190 0)
(0.061557 0.036146 0)
(0.061637 0.035586 0)
(0.061719 0.035025 0)
(0.062096 0.031551 0)
(0.062016 0.032427 0)
(0.061130 0.038413 0)
(0.061239 0.037838 0)
(0.061354 0.037269 0)
(0.061027 0.038994 0)
(0.062344 0.029432 0)
(0.062238 0.030562 0)
(0.066042 0.002592 0)
(0.064797 0.011632 0)
(0.064640 0.012766 0)
(0.065092 0.009758 0)
(0.064976 0.010638 0)
(0.065236 0.008992 0)
(0.065368 0.008317 0)
(0.065910 0.003736 0)
(0.065863 0.004313 0)
(0.065988 0.003171 0)
(0.065444 0.007716 0)
(0.065517 0.007149 0)
(0.065592 0.006583 0)
(0.065668 0.006017 0)
(0.065745 0.005453 0)
(0.065822 0.004888 0)
(0.061477 0.036704 0)
(0.061846 0.033867 0)
(0.061805 0.034463 0)
(0.061950 0.033196 0)
(0.061610 0.036143 0)
(0.061691 0.035586 0)
(0.061775 0.035028 0)
(0.062147 0.031557 0)
(0.062070 0.032433 0)
(0.061051 0.038980 0)
(0.061160 0.038400 0)
(0.061275 0.037827 0)
(0.061398 0.037260 0)
(0.060974 0.039549 0)
(0.060947 0.039569 0)
(0.064462 0.014056 0)
(0.062520 0.028153 0)
(0.062720 0.026702 0)
(0.062398 0.029439 0)
(0.062296 0.030569 0)
(0.066120 0.002025 0)
(0.066064 0.002605 0)
(0.066198 0.001458 0)
(0.064842 0.011638 0)
(0.064691 0.012773 0)
(0.065137 0.009765 0)
(0.065025 0.010645 0)
(0.065284 0.008999 0)
(0.065422 0.008326 0)
(0.065940 0.003748 0)
(0.065899 0.004325 0)
(0.066016 0.003184 0)
(0.065494 0.007725 0)
(0.065565 0.007158 0)
(0.065638 0.006593 0)
(0.065713 0.006028 0)
(0.065789 0.005464 0)
(0.065866 0.004901 0)
(0.061531 0.036697 0)
(0.061899 0.033873 0)
(0.061864 0.034468 0)
(0.062009 0.033202 0)
(0.061675 0.036139 0)
(0.061756 0.035586 0)
(0.061842 0.035030 0)
(0.062208 0.031565 0)
(0.062136 0.032442 0)
(0.061081 0.038963 0)
(0.061196 0.038384 0)
(0.061318 0.037813 0)
(0.061451 0.037249 0)
(0.061363 0.039602 0)
(0.061005 0.039525 0)
(0.061360 0.039626 0)
(0.061383 0.039629 0)
(0.064261 0.015522 0)
(0.064519 0.014064 0)
(0.064031 0.017188 0)
(0.063770 0.019081 0)
(0.062948 0.025051 0)
(0.063205 0.023181 0)
(0.063483 0.021165 0)
(0.062581 0.028161 0)
(0.062786 0.026711 0)
(0.062464 0.029448 0)
(0.062365 0.030579 0)
(0.066141 0.002039 0)
(0.066091 0.002620 0)
(0.066218 0.001474 0)
(0.066276 0.000891 0)
(0.064897 0.011646 0)
(0.064752 0.012782 0)
(0.065190 0.009773 0)
(0.065084 0.010654 0)
(0.065342 0.009009 0)
(0.065486 0.008337 0)
(0.065975 0.003762 0)
(0.065943 0.004339 0)
(0.066050 0.003200 0)
(0.065554 0.007736 0)
(0.065622 0.007169 0)
(0.065693 0.006604 0)
(0.065767 0.006040 0)
(0.065843 0.005478 0)
(0.065919 0.004917 0)
(2.045737 -0.104708 0)
(2.032812 0.009365 0)
(0.061594 0.036689 0)
(0.061963 0.033879 0)
(0.061935 0.034473 0)
(0.062079 0.033210 0)
(0.061752 0.036135 0)
(0.061835 0.035586 0)
(0.061923 0.035034 0)
(0.062282 0.031575 0)
(0.062214 0.032451 0)
(0.061117 0.038942 0)
(0.061239 0.038365 0)
(0.061370 0.037797 0)
(0.061514 0.037235 0)
(0.061367 0.039574 0)
(0.061043 0.039497 0)
(0.061307 0.040006 0)
(0.061332 0.040009 0)
(0.061411 0.039633 0)
(0.064322 0.015531 0)
(0.064586 0.014074 0)
(0.064097 0.017197 0)
(0.063840 0.019090 0)
(0.063018 0.025061 0)
(0.063278 0.023191 0)
(0.063555 0.021175 0)
(0.062653 0.028171 0)
(0.062865 0.026722 0)
(0.062542 0.029459 0)
(0.062448 0.030590 0)
(2.075947 -0.173621 0)
(0.066166 0.002056 0)
(0.066123 0.002637 0)
(0.066295 0.000910 0)
(0.066241 0.001493 0)
(0.066373 0.000348 0)
(0.066355 0.000324 0)
(0.064963 0.011656 0)
(0.064826 0.012792 0)
(0.065254 0.009783 0)
(0.065155 0.010665 0)
(0.065412 0.009020 0)
(0.065563 0.008350 0)
(0.066018 0.003779 0)
(0.065995 0.004357 0)
(0.066091 0.003219 0)
(0.065626 0.007749 0)
(0.065691 0.007183 0)
(0.065759 0.006618 0)
(0.065832 0.006055 0)
(0.065907 0.005494 0)
(0.065982 0.004935 0)
(0.035386 0.031905 0)
(3.000000 0.114924 0)
(2.124613 -0.059036 0)
(3.000000 0.750000 0)
(1.993014 -0.135392 0)
(2.079725 0.104357 0)
(1.988784 -0.053032 0)
(1.926890 0.047673 0)
(0.035308 0.032476 0)
(0.061671 0.036679 0)
(0.062039 0.033886 0)
(0.062020 0.034479 0)
(0.062163 0.033220 0)
(0.061845 0.036130 0)
(0.061929 0.035586 0)
(0.062020 0.035038 0)
(0.062371 0.031587 0)
(0.062308 0.032463 0)
(0.061160 0.038917 0)
(0.061290 0.038343 0)
(0.061433 0.037778 0)
(0.061590 0.037220 0)
(0.061371 0.039540 0)
(0.061088 0.039463 0)
(0.060751 0.039929 0)
(0.061304 0.040031 0)
(0.061362 0.040014 0)
(0.061445 0.039637 0)
(2.180938 -0.171276 0)
(3.000000 -0.156786 0)
(0.064396 0.015541 0)
(0.064667 0.014086 0)
(0.064176 0.017208 0)
(0.063924 0.019102 0)
(0.063102 0.025072 0)
(0.063364 0.023203 0)
(0.063641 0.021187 0)
(0.062740 0.028183 0)
(0.062960 0.026735 0)
(0.062636 0.029472 0)
(0.062548 0.030604 0)
(2.065088 -0.238651 0)
(2.019218 -0.173448 0)
(1.973644 -0.257465 0)
(1.963348 -0.157632 0)
(0.066196 0.002076 0)
(0.066162 0.002659 0)
(0.066318 0.000933 0)
(0.066269 0.001516 0)
(0.066395 0.000377 0)
(0.066764 0.000402 0)
(0.066767 0.000380 0)
(0.065043 0.011668 0)
(0.064914 0.012805 0)
(0.065331 0.009795 0)
(0.065241 0.010677 0)
(0.065495 0.009033 0)
(0.065655 0.008366 0)
(0.066069 0.003799 0)
(0.066057 0.004378 0)
(0.066140 0.003241 0)
(0.065712 0.007764 0)
(0.065773 0.007198 0)
(0.065839 0.006635 0)
(0.065910 0.006073 0)
(0.065983 0.005514 0)
(0.066058 0.004958 0)
(0.035360 0.031896 0)
(0.035465 0.031334 0)
(3.000000 0.432123 0)
(2.667523 0.118656 0)
(2.232787 0.042982 0)
(2.693701 0.750000 0)
(2.092562 0.225664 0)
(1.956856 0.292726 0)
(1.878336 0.341590 0)
(1.950324 -0.097226 0)
(1.964059 0.129891 0)
(1.923803 -0.024389 0)
(1.871488 0.017168 0)
(1.851320 0.085583 0)
(0.035229 0.033047 0)
(0.035282 0.032466 0)
(0.035150 0.033618 0)
(0.035071 0.034190 0)
(0.061763 0.036668 0)
(0.062131 0.033895 0)
(0.062122 0.034487 0)
(0.062264 0.033231 0)
(0.061944 0.036590 0)
(0.062031 0.036045 0)
(0.062135 0.035486 0)
(0.062250 0.034923 0)
(0.062477 0.031600 0)
(0.062421 0.032477 0)
(0.061211 0.038887 0)
(0.061352 0.038316 0)
(0.061508 0.037754 0)
(0.061681 0.037200 0)
(0.061377 0.039500 0)
(0.061142 0.039422 0)
(0.060122 0.039843 0)
(0.060747 0.039956 0)
(0.061300 0.040061 0)
(0.061397 0.040018 0)
(0.061486 0.039643 0)
(2.025623 -0.298616 0)
(2.161865 -0.279674 0)
(2.390324 -0.156540 0)
(2.818162 -0.152900 0)
(3.000000 -0.432338 0)
(0.066819 -0.000000 0)
(0.064484 0.015554 0)
(0.064764 0.014099 0)
(0.064271 0.017222 0)
(0.064024 0.019116 0)
(0.063203 0.025086 0)
(0.063468 0.023217 0)
(0.063745 0.021201 0)
(0.062844 0.028197 0)
(0.063074 0.026751 0)
(0.062748 0.029487 0)
(0.062669 0.030620 0)
(1.995030 -0.208243 0)
(1.944044 -0.235111 0)
(1.936479 -0.284715 0)
(1.913371 -0.351628 0)
(1.934184 -0.182250 0)
(1.906848 -0.133355 0)
(0.066232 0.002100 0)
(0.066209 0.002685 0)
(0.066344 0.000961 0)
(0.066303 0.001544 0)
(0.066422 0.000412 0)
(0.066760 0.000428 0)
(0.066788 0.000383 0)
(0.066843 0.000003 0)
(0.065138 0.011682 0)
(0.065019 0.012820 0)
(0.065423 0.009810 0)
(0.065343 0.010693 0)
(0.065765 0.008384 0)
(0.065595 0.009050 0)
(0.066130 0.003823 0)
(0.066132 0.004404 0)
(0.066200 0.003269 0)
(0.065816 0.007783 0)
(0.065872 0.007217 0)
(0.066010 0.007969 0)
(0.065934 0.006655 0)
(0.066003 0.006095 0)
(0.066076 0.005538 0)
(0.066149 0.004984 0)
(0.035329 0.031885 0)
(0.035438 0.031326 0)
(0.035544 0.030762 0)
(2.688964 0.452583 0)
(1.934583 0.340867 0)
(2.300817 0.258481 0)
(2.043207 0.330915 0)
(1.886104 0.404200 0)
(2.451512 0.750000 0)
(1.972404 0.216194 0)
(1.880076 0.281900 0)
(1.805446 0.339991 0)
(1.905041 -0.069106 0)
(1.871693 0.147644 0)
(1.872261 -0.013756 0)
(1.828079 0.038451 0)
(1.780377 0.103731 0)
(0.034992 0.034764 0)
(0.035204 0.033036 0)
(0.035252 0.032454 0)
(0.035127 0.033605 0)
(0.035049 0.034175 0)
(0.061873 0.037121 0)
(0.062241 0.033906 0)
(0.062363 0.034363 0)
(0.062385 0.033245 0)
(0.062224 0.036867 0)
(0.062309 0.036329 0)
(0.062395 0.035783 0)
(0.062542 0.035239 0)
(0.062686 0.034677 0)
(0.062604 0.031617 0)
(0.062556 0.032494 0)
(0.061273 0.038851 0)
(0.061427 0.038284 0)
(0.061598 0.037726 0)
(0.061824 0.037668 0)
(0.061384 0.039451 0)
(0.061207 0.039372 0)
(0.059407 0.039744 0)
(0.060117 0.039873 0)
(0.060743 0.039989 0)
(0.061295 0.040096 0)
(0.061440 0.040024 0)
(0.061534 0.039650 0)
(1.980998 -0.332415 0)
(1.925202 -0.396794 0)
(2.096738 -0.363228 0)
(2.294291 -0.361782 0)
(2.665391 -0.398881 0)
(3.000000 -0.750000 0)
(0.066822 -0.000024 0)
(0.066263 -0.000077 0)
(0.064590 0.015569 0)
(0.064880 0.014116 0)
(0.064386 0.017238 0)
(0.064145 0.019133 0)
(0.063324 0.025103 0)
(0.063593 0.023234 0)
(0.063870 0.021218 0)
(0.062969 0.028215 0)
(0.063210 0.026770 0)
(0.062883 0.029505 0)
(0.062813 0.030639 0)
(1.944579 -0.207911 0)
(1.914478 -0.244582 0)
(1.886691 -0.300571 0)
(1.847169 -0.365323 0)
(1.901579 -0.174254 0)
(1.888662 -0.096628 0)
(1.853876 -0.130639 0)
(0.066275 0.002129 0)
(0.066264 0.002715 0)
(0.066377 0.000994 0)
(0.066343 0.001577 0)
(0.066453 0.000454 0)
(0.066756 0.000459 0)
(0.066814 0.000387 0)
(0.066871 0.000007 0)
(0.065252 0.011698 0)
(0.065146 0.012839 0)
(0.065534 0.009827 0)
(0.065466 0.010711 0)
(0.065980 0.008599 0)
(0.065716 0.009069 0)
(0.066204 0.003852 0)
(0.066222 0.004434 0)
(0.066270 0.003302 0)
(0.066048 0.007387 0)
(0.066108 0.006813 0)
(0.066400 0.007755 0)
(0.066393 0.008334 0)
(0.066171 0.006251 0)
(0.066236 0.005695 0)
(0.066308 0.005132 0)
(0.066388 0.004566 0)
(0.035291 0.031873 0)
(0.035405 0.031316 0)
(0.035515 0.030755 0)
(0.035628 0.030151 0)
(2.424094 0.507181 0)
(1.966663 0.390139 0)
(2.144305 0.419366 0)
(1.806786 0.401554 0)
(1.893961 0.466905 0)
(2.283064 0.750000 0)
(1.881095 0.216448 0)
(1.804438 0.280153 0)
(1.728068 0.341849 0)
(1.858032 -0.053888 0)
(1.792235 0.160423 0)
(1.814568 -0.003216 0)
(1.767628 0.052977 0)
(1.710152 0.114426 0)
(0.034911 0.035357 0)
(0.034972 0.034747 0)
(0.035175 0.033022 0)
(0.035215 0.032440 0)
(0.035099 0.033590 0)
(0.035023 0.034157 0)
(0.062159 0.037422 0)
(0.062501 0.033763 0)
(0.062792 0.034149 0)
(0.062680 0.033085 0)
(0.063100 0.034447 0)
(0.062631 0.037130 0)
(0.062737 0.036567 0)
(0.062795 0.036111 0)
(0.062932 0.035531 0)
(0.063068 0.034944 0)
(0.062757 0.031637 0)
(0.062883 0.032316 0)
(0.061347 0.038808 0)
(0.061516 0.038245 0)
(0.061777 0.038074 0)
(0.062157 0.037982 0)
(0.061392 0.039392 0)
(0.061285 0.039313 0)
(0.058594 0.039632 0)
(0.059402 0.039778 0)
(0.060112 0.039909 0)
(0.060738 0.040028 0)
(0.061289 0.040139 0)
(0.061491 0.040031 0)
(0.061593 0.039658 0)
(1.876523 -0.437888 0)
(2.001942 -0.419942 0)
(2.187716 -0.460085 0)
(2.423893 -0.526552 0)
(2.706195 -0.750000 0)
(0.066826 -0.000052 0)
(0.066267 -0.000103 0)
(0.065633 -0.000163 0)
(0.064717 0.015587 0)
(0.065020 0.014136 0)
(0.064523 0.017257 0)
(0.064289 0.019153 0)
(0.063469 0.025123 0)
(0.063743 0.023255 0)
(0.064019 0.021239 0)
(0.063120 0.028235 0)
(0.063374 0.026793 0)
(0.063046 0.029528 0)
(0.062986 0.030662 0)
(1.904329 -0.207749 0)
(1.870465 -0.252717 0)
(1.830662 -0.310117 0)
(1.781339 -0.370210 0)
(1.855884 -0.170278 0)
(1.852314 -0.092069 0)
(1.803192 -0.127181 0)
(0.066327 0.002164 0)
(0.066331 0.002752 0)
(0.066415 0.001034 0)
(0.066392 0.001617 0)
(0.066491 0.000504 0)
(0.066751 0.000497 0)
(0.066846 0.000391 0)
(0.066905 0.000012 0)
(0.065389 0.011719 0)
(0.065298 0.012861 0)
(0.065666 0.009847 0)
(0.065614 0.010734 0)
(0.066431 0.008986 0)
(0.065945 0.009289 0)
(0.066292 0.003887 0)
(0.066455 0.004013 0)
(0.066356 0.003341 0)
(0.066410 0.007216 0)
(0.066514 0.006676 0)
(0.066804 0.007625 0)
(0.066784 0.008038 0)
(0.066921 0.008650 0)
(0.066586 0.006097 0)
(0.066637 0.005502 0)
(0.066706 0.004941 0)
(0.066778 0.004314 0)
(0.035724 0.029457 0)
(0.035246 0.031858 0)
(0.035366 0.031305 0)
(0.035481 0.030746 0)
(0.035597 0.030144 0)
(2.232498 0.571236 0)
(2.002357 0.495409 0)
(1.875308 0.527303 0)
(1.728249 0.401516 0)
(1.805941 0.468196 0)
(2.140723 0.750000 0)
(1.799850 0.220662 0)
(1.726237 0.283414 0)
(1.651129 0.342510 0)
(1.807014 -0.044966 0)
(1.717333 0.169031 0)
(1.757843 0.006540 0)
(1.702690 0.062858 0)
(1.640189 0.121684 0)
(0.034892 0.035337 0)
(0.034826 0.035970 0)
(0.034808 0.035946 0)
(0.034947 0.034726 0)
(0.035139 0.033006 0)
(0.035171 0.032422 0)
(0.035065 0.033571 0)
(0.034991 0.034136 0)
(0.062641 0.037767 0)
(0.063014 0.033534 0)
(0.063401 0.033989 0)
(0.063179 0.032900 0)
(0.063709 0.034556 0)
(0.063136 0.037513 0)
(0.063319 0.036855 0)
(0.063410 0.036370 0)
(0.063503 0.035842 0)
(0.063599 0.035251 0)
(0.063126 0.031438 0)
(0.063445 0.032091 0)
(0.035015 0.036384 0)
(0.035755 0.036486 0)
(0.062590 0.038437 0)
(0.061436 0.038756 0)
(0.061613 0.038316 0)
(0.062034 0.038428 0)
(0.061401 0.039322 0)
(0.061378 0.039242 0)
(0.057673 0.039505 0)
(0.058589 0.039671 0)
(0.059396 0.039819 0)
(0.060106 0.039952 0)
(0.060731 0.040074 0)
(0.061282 0.040190 0)
(0.061553 0.040040 0)
(0.061663 0.039667 0)
(1.792265 -0.429334 0)
(1.851773 -0.481242 0)
(1.941505 -0.487115 0)
(2.087879 -0.518563 0)
(2.274102 -0.592071 0)
(2.487098 -0.750000 0)
(0.066831 -0.000086 0)
(0.066271 -0.000135 0)
(0.065638 -0.000193 0)
(0.064919 -0.000262 0)
(0.064870 0.015608 0)
(0.065188 0.014160 0)
(0.064687 0.017280 0)
(0.064463 0.019177 0)
(0.063644 0.025147 0)
(0.063922 0.023280 0)
(0.064198 0.021264 0)
(0.063300 0.028260 0)
(0.063571 0.026820 0)
(0.063240 0.029554 0)
(0.063399 0.030440 0)
(1.713342 -0.377200 0)
(1.861396 -0.207230 0)
(1.819011 -0.258373 0)
(1.770222 -0.316502 0)
(1.804924 -0.170582 0)
(1.803385 -0.085668 0)
(1.748431 -0.126785 0)
(0.066389 0.002205 0)
(0.066411 0.002797 0)
(0.066462 0.001082 0)
(0.066450 0.001665 0)
(0.066537 0.000565 0)
(0.066744 0.000542 0)
(0.066883 0.000396 0)
(0.066946 0.000018 0)
(0.065553 0.011743 0)
(0.065480 0.012887 0)
(0.065916 0.010084 0)
(0.065889 0.011004 0)
(0.066994 0.009347 0)
(0.066431 0.009718 0)
(0.066523 0.003464 0)
(0.066877 0.003766 0)
(0.066599 0.002900 0)
(0.066895 0.006536 0)
(0.066916 0.007141 0)
(0.067388 0.007794 0)
(0.067343 0.008313 0)
(0.067582 0.008884 0)
(0.067046 0.005382 0)
(0.067134 0.005984 0)
(0.067269 0.004084 0)
(0.067313 0.004852 0)
(0.039840 -0.000419 0)
(0.040076 -0.002133 0)
(0.039997 -0.001562 0)
(0.039919 -0.000990 0)
(0.035832 0.028668 0)
(0.035690 0.029450 0)
(0.035192 0.031839 0)
(0.035320 0.031291 0)
(0.035440 0.030735 0)
(0.035561 0.030135 0)
(2.088748 0.618717 0)
(1.920171 0.574896 0)
(1.802929 0.539690 0)
(1.651178 0.399663 0)
(1.726829 0.462563 0)
(2.015287 0.750000 0)
(1.722771 0.225740 0)
(1.649956 0.286009 0)
(1.575295 0.342470 0)
(1.752621 -0.036951 0)
(1.644299 0.175275 0)
(1.696599 0.014046 0)
(1.636078 0.069799 0)
(1.570188 0.127090 0)
(0.034869 0.035313 0)
(0.034414 0.035913 0)
(0.034417 0.035889 0)
(0.034786 0.035917 0)
(0.034917 0.034702 0)
(0.035097 0.032986 0)
(0.035119 0.032402 0)
(0.035024 0.033549 0)
(0.034953 0.034111 0)
(0.034362 0.036294 0)
(0.063173 0.038122 0)
(0.063180 0.038661 0)
(0.063701 0.033373 0)
(0.064165 0.033963 0)
(0.063861 0.032665 0)
(0.064462 0.034479 0)
(0.064261 0.035007 0)
(0.063782 0.037791 0)
(0.063868 0.037306 0)
(0.063958 0.036721 0)
(0.064147 0.036229 0)
(0.064118 0.035628 0)
(0.063766 0.031169 0)
(0.064248 0.031864 0)
(0.036597 0.036602 0)
(0.035011 0.036414 0)
(0.035751 0.036520 0)
(0.062254 0.038857 0)
(0.062648 0.039034 0)
(0.061523 0.038814 0)
(0.061886 0.038853 0)
(0.061413 0.039238 0)
(0.056626 0.039361 0)
(0.057667 0.039548 0)
(0.058583 0.039717 0)
(0.059390 0.039868 0)
(0.060099 0.040004 0)
(0.060723 0.040130 0)
(0.061273 0.040252 0)
(0.061627 0.040050 0)
(0.061747 0.039679 0)
(1.722154 -0.432314 0)
(1.800819 -0.484432 0)
(1.882615 -0.522940 0)
(2.000481 -0.558950 0)
(2.155579 -0.627772 0)
(2.335401 -0.750000 0)
(0.064106 -0.000374 0)
(0.066837 -0.000127 0)
(0.066276 -0.000173 0)
(0.065642 -0.000229 0)
(0.064923 -0.000295 0)
(0.065053 0.015634 0)
(0.065389 0.014189 0)
(0.064884 0.017308 0)
(0.064671 0.019206 0)
(0.063853 0.025176 0)
(0.064138 0.023310 0)
(0.064413 0.021294 0)
(0.063516 0.028290 0)
(0.063807 0.026852 0)
(0.063718 0.029298 0)
(0.064249 0.030025 0)
(1.643623 -0.384229 0)
(1.705673 -0.323893 0)
(1.810873 -0.212544 0)
(1.761378 -0.265963 0)
(1.750045 -0.172349 0)
(1.748709 -0.082344 0)
(1.690317 -0.126863 0)
(0.066464 0.002255 0)
(0.066671 0.002365 0)
(0.066518 0.001139 0)
(0.066520 0.001723 0)
(0.066592 0.000637 0)
(0.066737 0.000596 0)
(0.066928 0.000403 0)
(0.066995 0.000024 0)
(0.065868 0.012044 0)
(0.065847 0.013241 0)
(0.066381 0.010455 0)
(0.066395 0.011436 0)
(0.067828 0.009720 0)
(0.067135 0.010153 0)
(0.066894 0.003179 0)
(0.067342 0.003543 0)
(0.066968 0.002712 0)
(0.067911 0.004010 0)
(0.067375 0.006674 0)
(0.067686 0.007369 0)
(0.068099 0.008190 0)
(0.068386 0.009101 0)
(0.067604 0.005538 0)
(0.067878 0.006234 0)
(0.067849 0.004623 0)
(0.068427 0.004272 0)
(0.068041 0.005099 0)
(0.068996 0.009239 0)
(0.040155 -0.002704 0)
(0.039761 0.000156 0)
(0.039812 -0.000416 0)
(0.040051 -0.002122 0)
(0.039972 -0.001554 0)
(0.039892 -0.000985 0)
(0.035956 0.027769 0)
(0.035795 0.028661 0)
(0.035650 0.029441 0)
(0.035127 0.031817 0)
(0.035263 0.031274 0)
(0.035391 0.030723 0)
(0.035516 0.030125 0)
(1.575302 0.397296 0)
(1.976499 0.652401 0)
(1.849022 0.604217 0)
(1.765835 0.584127 0)
(1.721155 0.522139 0)
(1.649951 0.457145 0)
(1.905209 0.750000 0)
(1.647678 0.230204 0)
(1.574727 0.287939 0)
(1.500000 0.342105 0)
(1.692866 -0.032848 0)
(1.572030 0.180102 0)
(1.632976 0.019743 0)
(1.568647 0.075025 0)
(1.500000 0.131579 0)
(0.034841 0.035285 0)
(0.034389 0.035910 0)
(0.034421 0.035861 0)
(0.034760 0.035883 0)
(0.034881 0.034672 0)
(0.035046 0.032962 0)
(0.035056 0.032377 0)
(0.034976 0.033522 0)
(0.034908 0.034080 0)
(0.034358 0.036321 0)
(0.034334 0.036290 0)
(0.063890 0.038263 0)
(0.063089 0.039222 0)
(0.063753 0.038880 0)
(0.064591 0.033266 0)
(0.065127 0.034115 0)
(0.064879 0.032524 0)
(0.065009 0.034892 0)
(0.064782 0.035449 0)
(0.064669 0.037766 0)
(0.064588 0.036891 0)
(0.064832 0.036078 0)
(0.064735 0.030766 0)
(0.065373 0.031563 0)
(0.037551 0.036733 0)
(0.036592 0.036641 0)
(0.035006 0.036451 0)
(0.035745 0.036562 0)
(0.062182 0.039420 0)
(0.062627 0.039572 0)
(0.061833 0.039514 0)
(0.063183 0.039698 0)
(0.062818 0.039986 0)
(0.055438 0.039197 0)
(0.056619 0.039409 0)
(0.057660 0.039600 0)
(0.058575 0.039772 0)
(0.059382 0.039927 0)
(0.060091 0.040067 0)
(0.060714 0.040197 0)
(0.061263 0.040326 0)
(0.061716 0.040062 0)
(0.054088 0.039011 0)
(0.052556 0.038800 0)
(0.038637 0.036883 0)
(0.039866 0.037052 0)
(1.650786 -0.438807 0)
(1.732955 -0.488280 0)
(1.818919 -0.540027 0)
(1.922067 -0.587720 0)
(2.053415 -0.650716 0)
(2.208273 -0.750000 0)
(0.040233 -0.003275 0)
(0.063185 -0.000501 0)
(0.064112 -0.000412 0)
(0.066843 -0.000176 0)
(0.066282 -0.000218 0)
(0.065648 -0.000271 0)
(0.064929 -0.000336 0)
(0.065273 0.015665 0)
(0.065816 0.014605 0)
(0.065121 0.017341 0)
(0.064921 0.019241 0)
(0.064104 0.025211 0)
(0.064396 0.023346 0)
(0.064671 0.021330 0)
(0.064046 0.028000 0)
(0.064542 0.026399 0)
(0.064680 0.028839 0)
(0.065418 0.029681 0)
(1.572388 -0.389890 0)
(1.638095 -0.331080 0)
(1.698716 -0.273165 0)
(1.754997 -0.217817 0)
(1.692365 -0.174039 0)
(1.690442 -0.079977 0)
(1.628376 -0.128370 0)
(0.066698 0.001896 0)
(0.066993 0.002149 0)
(0.066585 0.001208 0)
(0.066656 0.001370 0)
(0.066658 0.000724 0)
(0.066728 0.000661 0)
(0.066982 0.000410 0)
(0.067054 0.000032 0)
(0.066480 0.012510 0)
(0.066561 0.013788 0)
(0.067096 0.011075 0)
(0.067180 0.011987 0)
(0.068662 0.009938 0)
(0.068079 0.010605 0)
(0.069352 0.009724 0)
(0.067406 0.003039 0)
(0.067932 0.003431 0)
(0.067441 0.002501 0)
(0.068556 0.003734 0)
(0.068083 0.006916 0)
(0.068524 0.007736 0)
(0.068878 0.008538 0)
(0.068359 0.005725 0)
(0.068711 0.006563 0)
(0.068716 0.004686 0)
(0.069035 0.004149 0)
(0.068987 0.005301 0)
(0.069690 0.008956 0)
(0.040207 -0.003256 0)
(0.040129 -0.002689 0)
(0.039673 0.000791 0)
(0.039731 0.000158 0)
(0.039780 -0.000412 0)
(0.040021 -0.002109 0)
(0.039942 -0.001544 0)
(0.039861 -0.000978 0)
(0.036097 0.026748 0)
(0.035914 0.027762 0)
(0.035750 0.028652 0)
(0.035601 0.029431 0)
(0.035049 0.031791 0)
(0.035196 0.031255 0)
(0.035331 0.030707 0)
(0.035463 0.030113 0)
(1.500000 0.394737 0)
(1.574768 0.452328 0)
(1.881994 0.672560 0)
(1.780779 0.622981 0)
(1.712902 0.575536 0)
(1.647375 0.513953 0)
(1.808107 0.750000 0)
(1.573617 0.233780 0)
(1.500000 0.289474 0)
(1.448572 0.341758 0)
(1.630093 -0.030009 0)
(1.500000 0.184211 0)
(1.566807 0.023297 0)
(1.500000 0.078947 0)
(1.448915 0.139746 0)
(0.034808 0.035251 0)
(0.034359 0.035906 0)
(0.034426 0.035826 0)
(0.034729 0.035842 0)
(0.034838 0.034637 0)
(0.034985 0.032934 0)
(0.034980 0.032347 0)
(0.034917 0.033490 0)
(0.034853 0.034043 0)
(0.034353 0.036354 0)
(0.034301 0.036285 0)
(0.064530 0.038538 0)
(0.063725 0.039393 0)
(0.064399 0.039146 0)
(0.063786 0.039982 0)
(0.065632 0.034733 0)
(0.065583 0.033368 0)
(0.066093 0.034154 0)
(0.066195 0.032542 0)
(0.065495 0.035534 0)
(0.065270 0.038139 0)
(0.065404 0.037302 0)
(0.065495 0.036446 0)
(0.066001 0.030569 0)
(0.066795 0.031641 0)
(0.037545 0.036778 0)
(0.036585 0.036688 0)
(0.035000 0.036496 0)
(0.035738 0.036612 0)
(0.062297 0.039977 0)
(0.061940 0.040143 0)
(0.062689 0.040332 0)
(0.063233 0.040287 0)
(0.063831 0.040482 0)
(0.055431 0.039250 0)
(0.056611 0.039466 0)
(0.057652 0.039661 0)
(0.058566 0.039838 0)
(0.059372 0.039997 0)
(0.060080 0.040142 0)
(0.060703 0.040278 0)
(0.061251 0.040415 0)
(0.061611 0.040548 0)
(0.054080 0.039069 0)
(0.050818 0.038561 0)
(0.052547 0.038864 0)
(0.041265 0.037245 0)
(0.042852 0.037463 0)
(0.044653 0.037712 0)
(0.046674 0.037990 0)
(0.048842 0.038289 0)
(0.038629 0.036934 0)
(0.039858 0.037110 0)
(1.576710 -0.443772 0)
(1.660634 -0.495076 0)
(1.747865 -0.546881 0)
(1.845022 -0.603218 0)
(1.960746 -0.665522 0)
(2.096993 -0.750000 0)
(0.039821 -0.003332 0)
(0.042109 -0.003404 0)
(0.062138 -0.000645 0)
(0.063191 -0.000545 0)
(0.064118 -0.000458 0)
(0.066851 -0.000235 0)
(0.066290 -0.000273 0)
(0.065655 -0.000323 0)
(0.064935 -0.000384 0)
(0.065703 0.016089 0)
(0.066653 0.015332 0)
(0.065673 0.017861 0)
(0.065576 0.019916 0)
(0.064907 0.024540 0)
(0.065220 0.022119 0)
(0.065196 0.027477 0)
(0.065590 0.025932 0)
(0.066035 0.028435 0)
(0.066811 0.029451 0)
(1.500000 -0.394737 0)
(1.569443 -0.336888 0)
(1.633806 -0.279194 0)
(1.694191 -0.223333 0)
(1.629219 -0.177889 0)
(1.628602 -0.079223 0)
(1.565227 -0.129574 0)
(0.067008 0.001633 0)
(0.067464 0.001936 0)
(0.066652 0.001196 0)
(0.066997 0.001215 0)
(0.066717 0.000739 0)
(0.067047 0.000419 0)
(0.067125 0.000042 0)
(0.067495 0.013177 0)
(0.067694 0.014572 0)
(0.068259 0.011522 0)
(0.068291 0.012484 0)
(0.069207 0.010690 0)
(0.070008 0.009866 0)
(0.068024 0.002881 0)
(0.068517 0.003249 0)
(0.068023 0.002312 0)
(0.069167 0.003459 0)
(0.069662 0.004002 0)
(0.069030 0.007340 0)
(0.069366 0.008065 0)
(0.069280 0.006079 0)
(0.069455 0.006811 0)
(0.069648 0.004695 0)
(0.069877 0.005521 0)
(0.070127 0.008250 0)
(0.070580 0.008913 0)
(0.039818 -0.003308 0)
(0.040176 -0.003232 0)
(0.040099 -0.002672 0)
(0.039574 0.001513 0)
(0.039641 0.000791 0)
(0.039696 0.000160 0)
(0.039740 -0.000407 0)
(0.039985 -0.002093 0)
(0.039905 -0.001533 0)
(0.039824 -0.000971 0)
(0.036257 0.025586 0)
(0.036050 0.026740 0)
(0.035864 0.027753 0)
(0.035696 0.028642 0)
(0.034956 0.031760 0)
(0.035543 0.029419 0)
(0.035115 0.031231 0)
(0.035260 0.030689 0)
(0.035400 0.030098 0)
(1.448386 0.394150 0)
(1.500000 0.447368 0)
(1.573987 0.507816 0)
(1.797502 0.683229 0)
(1.713588 0.628673 0)
(1.644415 0.569357 0)
(1.722450 0.750000 0)
(1.500000 0.236842 0)
(1.448640 0.289864 0)
(1.397492 0.340904 0)
(1.565557 -0.027919 0)
(1.449592 0.188581 0)
(1.500000 0.026316 0)
(1.445583 0.090655 0)
(1.403241 0.147578 0)
(0.034769 0.035210 0)
(0.034322 0.035901 0)
(0.034432 0.035785 0)
(0.034692 0.035792 0)
(0.034786 0.034594 0)
(0.034911 0.032900 0)
(0.034889 0.032312 0)
(0.034847 0.033451 0)
(0.034787 0.033999 0)
(0.034348 0.036394 0)
(0.034261 0.036280 0)
(0.065125 0.038808 0)
(0.064438 0.039681 0)
(0.065264 0.039440 0)
(0.064455 0.040357 0)
(0.066285 0.034986 0)
(0.066658 0.033484 0)
(0.066838 0.034321 0)
(0.067392 0.032809 0)
(0.066303 0.035834 0)
(0.065812 0.038511 0)
(0.066082 0.037787 0)
(0.066420 0.036858 0)
(0.067649 0.030637 0)
(0.068215 0.031922 0)
(0.037538 0.036832 0)
(0.036577 0.036745 0)
(0.034993 0.036549 0)
(0.035730 0.036672 0)
(0.064181 0.040936 0)
(0.062241 0.040610 0)
(0.062824 0.040735 0)
(0.063420 0.040835 0)
(0.055422 0.039313 0)
(0.056602 0.039534 0)
(0.057642 0.039735 0)
(0.058555 0.039917 0)
(0.059360 0.040082 0)
(0.060068 0.040232 0)
(0.061759 0.041083 0)
(0.060690 0.040374 0)
(0.061087 0.040604 0)
(0.061299 0.040912 0)
(0.054071 0.039139 0)
(0.050809 0.038629 0)
(0.052537 0.038940 0)
(0.041256 0.037310 0)
(0.042842 0.037535 0)
(0.044643 0.037786 0)
(0.046663 0.038064 0)
(0.048832 0.038361 0)
(0.038621 0.036996 0)
(0.039849 0.037181 0)
(1.500000 -0.447368 0)
(1.584527 -0.499371 0)
(1.673674 -0.553689 0)
(1.766948 -0.610783 0)
(1.872627 -0.673789 0)
(1.995483 -0.750000 0)
(0.041267 -0.003520 0)
(0.040527 -0.003622 0)
(0.039874 -0.003712 0)
(0.039797 -0.003335 0)
(0.043063 -0.003273 0)
(0.042115 -0.003445 0)
(0.044148 -0.003124 0)
(0.060950 -0.000809 0)
(0.062145 -0.000695 0)
(0.063198 -0.000597 0)
(0.064125 -0.000513 0)
(0.066861 -0.000306 0)
(0.066299 -0.000338 0)
(0.065664 -0.000384 0)
(0.064943 -0.000442 0)
(0.067966 0.016146 0)
(0.066560 0.016862 0)
(0.066755 0.018921 0)
(0.066572 0.021139 0)
(0.066220 0.023616 0)
(0.066719 0.027051 0)
(0.067660 0.025140 0)
(0.067604 0.028152 0)
(0.068669 0.029548 0)
(1.449485 -0.400001 0)
(1.500000 -0.342105 0)
(1.567354 -0.284490 0)
(1.630905 -0.228170 0)
(1.565494 -0.180806 0)
(1.565544 -0.078505 0)
(1.500000 -0.131579 0)
(0.067507 0.001414 0)
(0.067417 0.001005 0)
(0.068077 0.001668 0)
(0.067083 0.000779 0)
(0.067125 0.000430 0)
(0.067210 0.000054 0)
(0.068765 0.013723 0)
(0.068993 0.015159 0)
(0.069573 0.011610 0)
(0.069957 0.012745 0)
(0.070549 0.010769 0)
(0.070956 0.009906 0)
(0.068784 0.002748 0)
(0.068693 0.002008 0)
(0.069517 0.002964 0)
(0.069925 0.003496 0)
(0.070346 0.004173 0)
(0.070010 0.007434 0)
(0.070059 0.006473 0)
(0.070542 0.005052 0)
(0.070703 0.005972 0)
(0.070879 0.007948 0)
(0.071496 0.008842 0)
(0.071909 0.009619 0)
(0.039814 -0.003280 0)
(0.040139 -0.003204 0)
(0.040063 -0.002651 0)
(0.039460 0.002334 0)
(0.039538 0.001512 0)
(0.039602 0.000791 0)
(0.039653 0.000162 0)
(0.039693 -0.000401 0)
(0.039942 -0.002075 0)
(0.039862 -0.001519 0)
(0.039779 -0.000961 0)
(0.036439 0.024265 0)
(0.036204 0.025578 0)
(0.035993 0.026730 0)
(0.034715 0.032162 0)
(0.035803 0.027742 0)
(0.035632 0.028629 0)
(0.034750 0.031589 0)
(0.035018 0.031202 0)
(0.035474 0.029404 0)
(0.035175 0.030667 0)
(0.035324 0.030081 0)
(0.036646 0.022762 0)
(0.036881 0.021053 0)
(1.397133 0.393119 0)
(1.447971 0.446958 0)
(1.500000 0.500000 0)
(1.572798 0.564618 0)
(1.718896 0.687335 0)
(1.642486 0.627193 0)
(1.642839 0.750000 0)
(1.449019 0.238643 0)
(1.397048 0.289665 0)
(1.348064 0.338848 0)
(1.500000 -0.026316 0)
(1.402282 0.191058 0)
(1.440495 0.038935 0)
(1.394810 0.104904 0)
(1.370204 0.153657 0)
(0.034721 0.035161 0)
(0.034279 0.035895 0)
(0.034439 0.035736 0)
(0.034647 0.035733 0)
(0.034724 0.034543 0)
(0.034823 0.032859 0)
(0.034648 0.032719 0)
(0.034763 0.033404 0)
(0.034708 0.033947 0)
(0.034341 0.036442 0)
(0.034213 0.036273 0)
(0.065900 0.039055 0)
(0.065264 0.040181 0)
(0.065965 0.039664 0)
(0.064421 0.041412 0)
(0.064870 0.040895 0)
(0.067110 0.035210 0)
(0.067673 0.033785 0)
(0.067730 0.034591 0)
(0.068515 0.033308 0)
(0.067252 0.036115 0)
(0.066604 0.038499 0)
(0.067009 0.037767 0)
(0.067447 0.036893 0)
(0.069333 0.030843 0)
(0.069426 0.032742 0)
(0.069730 0.031926 0)
(0.037529 0.036897 0)
(0.036568 0.036813 0)
(0.034984 0.036613 0)
(0.035720 0.036744 0)
(0.063739 0.041364 0)
(0.062382 0.041131 0)
(0.063067 0.041221 0)
(0.062094 0.041512 0)
(0.061673 0.041634 0)
(0.064106 0.041880 0)
(0.055411 0.039389 0)
(0.056591 0.039616 0)
(0.057629 0.039824 0)
(0.058542 0.040013 0)
(0.059346 0.040184 0)
(0.060053 0.040339 0)
(0.061182 0.041411 0)
(0.060515 0.040579 0)