/*--------------------------------*- C++ -*----------------------------------*\
| =========                 |                                                 |
| \\      /  F ield         | OpenFOAM: The Open Source CFD Toolbox           |
|  \\    /   O peration     | Version:  5                                     |
|   \\  /    A nd           | Web:      www.OpenFOAM.org                      |
|    \\/     M anipulation  |                                                 |
\*---------------------------------------------------------------------------*/
FoamFile
{
    version     2.0;
    format      ascii;
    class       dictionary;
    location    "system";
    object      controlDict;
}
// * * * * * * * * * * * * * * * * * * * * * * * * * * * * * * * * * * * * * //

application     simpleFoam;

startFrom       startTime;
// startFrom       latestTime;

startTime       0;

stopAt          endTime;

endTime         0.0025;

deltaT          0.000025;

writeControl    timeStep;

writeInterval   1;

purgeWrite      640;

// writeFormat     ascii;
writeFormat     binary;

writePrecision  6;

writeCompression off;
// writeCompression on;

timeFormat      general;

timePrecision   6;

runTimeModifiable true;

functions
{
    // #includeFunc streamlines
}

// ************************************************************************* //
