/*--------------------------------*- C++ -*----------------------------------*\
| =========                 |                                                 |
| \\      /  F ield         | OpenFOAM: The Open Source CFD Toolbox           |
|   \\  /    O peration     | Web:      https://www.OpenFOAM.org              |
|  \\    /   A nd           | Version:  8                                     |
|    \\/     M anipulation  |                                                 |
\*---------------------------------------------------------------------------*/
FoamFile
{
    version     2.0;
    format      ascii;
    class       dictionary;
    object      blockMeshDict;
}
// * * * * * * * * * * * * * * * * * * * * * * * * * * * * * * * * * * * * * //

convertToMeters 1;

vertices
(
(1.750000 0.750000 0)
(1.750000 0.698276 0)
(1.697917 0.750000 0)
(1.750000 0.646552 0)
(1.698332 0.698616 0)
(1.645833 0.750000 0)
(1.750000 0.594828 0)
(1.698734 0.647218 0)
(1.646646 0.698945 0)
(1.593750 0.750000 0)
(1.750000 0.543103 0)
(1.699104 0.595779 0)
(1.647430 0.647858 0)
(1.594914 0.699244 0)
(1.541667 0.750000 0)
(1.750000 0.491379 0)
(1.699413 0.544264 0)
(1.648157 0.596696 0)
(1.596043 0.648447 0)
(1.543106 0.699496 0)
(1.489583 0.750000 0)
(1.750000 0.439655 0)
(1.699641 0.492647 0)
(1.648788 0.545405 0)
(1.597130 0.597578 0)
(1.544528 0.648963 0)
(1.491207 0.699690 0)
(1.437500 0.750000 0)
(1.750000 0.387931 0)
(1.699836 0.440979 0)
(1.649273 0.493924 0)
(1.598143 0.546576 0)
(1.545974 0.598410 0)
(1.492839 0.649374 0)
(1.439216 0.699825 0)
(1.385417 0.750000 0)
(1.750000 0.336207 0)
(1.699923 0.389183 0)
(1.649666 0.442309 0)
(1.598964 0.495304 0)
(1.547514 0.547855 0)
(1.494571 0.599108 0)
(1.440954 0.649659 0)
(1.387147 0.699909 0)
(1.333333 0.750000 0)
(1.750000 0.284483 0)
(1.699970 0.337335 0)
(1.649847 0.390445 0)
(1.599552 0.443725 0)
(1.548917 0.497022 0)
(1.496642 0.549065 0)
(1.442800 0.599562 0)
(1.388897 0.649829 0)
(1.335022 0.699955 0)
(1.281250 0.750000 0)
(1.750000 0.232759 0)
(1.699993 0.285458 0)
(1.649939 0.338470 0)
(1.599808 0.391763 0)
(1.549633 0.445382 0)
(1.500000 0.500000 0)
(1.444910 0.549652 0)
(1.390719 0.599797 0)
(1.336724 0.649918 0)
(1.282864 0.699979 0)
(1.229167 0.750000 0)
(1.750000 -0.750000 0)
(1.750000 0.181034 0)
(1.700003 0.233565 0)
(1.649982 0.286437 0)
(1.599924 0.339635 0)
(1.549857 0.393194 0)
(1.500000 0.447368 0)
(1.447368 0.500000 0)
(1.392667 0.549854 0)
(1.338463 0.599907 0)
(1.284485 0.649962 0)
(1.230688 0.699991 0)
(1.177083 0.750000 0)
(1.750000 -0.698276 0)
(1.697917 -0.750000 0)
(1.750000 0.129310 0)
(1.700008 0.181665 0)
(1.650002 0.234374 0)
(1.599976 0.287429 0)
(1.549944 0.340848 0)
(1.500000 0.394737 0)
(1.447396 0.447604 0)
(1.394737 0.500000 0)
(1.340260 0.549936 0)
(1.286124 0.599958 0)
(1.232212 0.649983 0)
(1.178503 0.699996 0)
(1.125000 0.750000 0)
(1.750000 -0.646552 0)
(1.698300 -0.698591 0)
(1.645833 -0.750000 0)
(1.750000 0.077586 0)
(1.700010 0.129762 0)
(1.650010 0.182297 0)
(1.599998 0.235188 0)
(1.549981 0.288442 0)
(1.500000 0.342105 0)
(1.447457 0.395195 0)
(1.394758 0.447853 0)
(1.342105 0.500000 0)
(1.287788 0.549972 0)
(1.233745 0.599981 0)
(1.179923 0.649993 0)
(1.126313 0.699998 0)
(1.072917 0.750000 0)
(1.750000 -0.594828 0)
(1.698671 -0.647165 0)
(1.646595 -0.698907 0)
(1.593750 -0.750000 0)
(1.750000 0.025862 0)
(1.700010 0.077858 0)
(1.650014 0.130215 0)
(1.600008 0.182931 0)
(1.549997 0.236011 0)
(1.500000 0.289474 0)
(1.447542 0.342736 0)
(1.394853 0.395683 0)
(1.342030 0.448116 0)
(1.289474 0.500000 0)
(1.235289 0.549987 0)
(1.181348 0.599992 0)
(1.127627 0.649997 0)
(1.074122 0.699999 0)
(1.020833 0.750000 0)
(1.750000 -0.543103 0)
(1.699023 -0.595709 0)
(1.647339 -0.647787 0)
(1.594864 -0.699210 0)
(1.541667 -0.750000 0)
(1.750000 -0.025862 0)
(1.700011 0.025953 0)
(1.650015 0.078129 0)
(1.600012 0.130668 0)
(1.550004 0.183569 0)
(1.500000 0.236842 0)
(1.447659 0.290208 0)
(1.395015 0.343417 0)
(1.342054 0.396192 0)
(1.289170 0.448395 0)
(1.236842 0.500000 0)
(1.182777 0.549994 0)
(1.128942 0.599996 0)
(1.075327 0.649999 0)
(1.021929 0.700000 0)
(0.968750 0.750000 0)
(1.750000 -0.491379 0)
(1.699343 -0.544202 0)
(1.648052 -0.596612 0)
(1.595965 -0.648393 0)
(1.543081 -0.699481 0)
(1.489583 -0.750000 0)
(1.750000 -0.077586 0)
(1.700011 -0.025953 0)
(1.650016 0.026043 0)
(1.600014 0.078401 0)
(1.550006 0.131123 0)
(1.500000 0.184211 0)
(1.447801 0.237599 0)
(1.395225 0.290995 0)
(1.342207 0.344134 0)
(1.288978 0.396732 0)
(1.236156 0.448698 0)
(1.184211 0.500000 0)
(1.130260 0.549998 0)
(1.076533 0.599998 0)
(1.023025 0.649999 0)
(0.969737 0.700000 0)
(0.916667 0.750000 0)
(1.750000 -0.439655 0)
(1.699608 -0.492621 0)
(1.648702 -0.545337 0)
(1.597051 -0.597525 0)
(1.544496 -0.648949 0)
(1.491218 -0.699702 0)
(1.437500 -0.750000 0)
(1.750000 -0.129310 0)
(1.700011 -0.077858 0)
(1.650016 -0.026044 0)
(1.600014 0.026134 0)
(1.550008 0.078674 0)
(1.500000 0.131579 0)
(1.447962 0.184911 0)
(1.395490 0.238409 0)
(1.342457 0.291847 0)
(1.288935 0.344889 0)
(1.235575 0.397320 0)
(1.182989 0.449034 0)
(1.131579 0.500000 0)
(1.077740 0.549999 0)
(1.024122 0.599999 0)
(0.970723 0.650000 0)
(0.917544 0.700000 0)
(0.864583 0.750000 0)
(1.750000 -0.387931 0)
(1.699818 -0.440967 0)
(1.649227 -0.493890 0)
(1.598084 -0.546538 0)
(1.545952 -0.598408 0)
(1.492865 -0.649403 0)
(1.439259 -0.699857 0)
(1.385417 -0.750000 0)
(1.750000 -0.181034 0)
(1.700011 -0.129764 0)
(1.650016 -0.078131 0)
(1.600015 -0.026134 0)
(1.550008 0.026225 0)
(1.500000 0.078947 0)
(1.448136 0.132152 0)
(1.395786 0.185662 0)
(1.342752 0.239290 0)
(1.289120 0.292769 0)
(1.235137 0.345719 0)
(1.181855 0.397978 0)
(1.129692 0.449416 0)
(1.078947 0.500000 0)
(1.025219 0.550000 0)
(0.812500 0.750000 0)
(0.971710 0.600000 0)
(0.918421 0.650000 0)
(0.865351 0.700000 0)
(1.750000 -0.336207 0)
(1.699942 -0.389209 0)
(1.649639 -0.442291 0)
(1.598927 -0.495280 0)
(1.547501 -0.547858 0)
(1.494607 -0.599150 0)
(1.441026 -0.649718 0)
(1.387203 -0.699948 0)
(1.333333 -0.750000 0)
(1.750000 -0.232759 0)
(1.700011 -0.181670 0)
(1.650016 -0.130218 0)
(1.600015 -0.078403 0)
(1.550008 -0.026225 0)
(1.500000 0.026316 0)
(1.448324 0.079334 0)
(1.396100 0.132773 0)
(1.343086 0.186496 0)
(1.289307 0.240273 0)
(1.234861 0.293760 0)
(1.180854 0.346680 0)
(1.127865 0.398729 0)
(1.076308 0.449856 0)
(1.026316 0.500000 0)
(0.972697 0.550000 0)
(0.760417 0.750000 0)
(0.813158 0.700000 0)
(0.919298 0.600000 0)
(0.866118 0.650000 0)
(1.750000 -0.284483 0)
(1.699995 -0.337367 0)
(1.649876 -0.390485 0)
(1.599527 -0.443710 0)
(1.548901 -0.497016 0)
(1.496669 -0.549097 0)
(1.442876 -0.599627 0)
(1.388987 -0.649895 0)
(1.335069 -0.699988 0)
(1.281250 -0.750000 0)
(1.700011 -0.233575 0)
(1.650016 -0.182305 0)
(1.600015 -0.130671 0)
(1.550008 -0.078675 0)
(1.500000 -0.026316 0)
(1.448549 0.026472 0)
(1.396431 0.079765 0)
(1.343403 0.133493 0)
(1.289628 0.187462 0)
(1.234901 0.241410 0)
(1.179955 0.294959 0)
(1.126127 0.347768 0)
(1.073689 0.399611 0)
(1.022888 0.450361 0)
(0.973684 0.500000 0)
(0.920175 0.550000 0)
(0.708333 0.750000 0)
(0.760965 0.700000 0)
(0.813816 0.650000 0)
(0.866886 0.600000 0)
(1.700009 -0.285479 0)
(1.649981 -0.338524 0)
(1.599837 -0.391803 0)
(1.549619 -0.445374 0)
(1.500000 -0.500000 0)
(1.444959 -0.549695 0)
(1.390810 -0.599866 0)
(1.336803 -0.649974 0)
(1.282893 -0.699999 0)
(1.229167 -0.750000 0)
(1.650016 -0.234392 0)
(1.600015 -0.182940 0)
(1.550008 -0.131125 0)
(1.500000 -0.078947 0)
(1.448573 -0.026405 0)
(1.396758 0.026665 0)
(1.343778 0.080299 0)
(1.289541 0.134401 0)
(1.234920 0.188674 0)
(1.179323 0.242845 0)
(1.124619 0.296434 0)
(1.071175 0.349077 0)
(0.656250 0.750000 0)
(1.019456 0.400606 0)
(0.969473 0.450946 0)
(0.921053 0.500000 0)
(0.867653 0.550000 0)
(0.708772 0.700000 0)
(0.761513 0.650000 0)
(0.814474 0.600000 0)
(1.650012 -0.286474 0)
(1.599968 -0.339689 0)
(1.549874 -0.393217 0)
(1.500000 -0.447368 0)
(1.447368 -0.500000 0)
(1.392723 -0.549898 0)
(1.338544 -0.599965 0)
(1.284535 -0.649997 0)
(1.230702 -0.700000 0)
(1.177083 -0.750000 0)
(1.600015 -0.235208 0)
(1.550008 -0.183575 0)
(1.500000 -0.131579 0)
(1.448529 -0.079276 0)
(1.397050 -0.026488 0)
(1.344189 0.026945 0)
(1.289884 0.081041 0)
(1.234498 0.135637 0)
(1.178991 0.190284 0)
(1.123276 0.244659 0)
(1.068857 0.298196 0)
(1.016142 0.350607 0)
(0.604167 0.750000 0)
(0.656579 0.700000 0)
(0.965261 0.401773 0)
(0.916082 0.451625 0)
(0.868421 0.500000 0)
(0.815132 0.550000 0)
(0.709211 0.650000 0)
(0.762061 0.600000 0)
(1.600009 -0.287470 0)
(1.549971 -0.340881 0)
(1.500000 -0.394737 0)
(1.447540 -0.447617 0)
(1.394737 -0.500000 0)
(1.340309 -0.549972 0)
(1.286177 -0.599995 0)
(1.232237 -0.650000 0)
(1.178509 -0.700000 0)
(1.125000 -0.750000 0)
(1.550008 -0.236025 0)
(1.500000 -0.184211 0)
(1.448440 -0.132116 0)
(1.396883 -0.079615 0)
(1.344617 -0.026516 0)
(1.290245 0.027410 0)
(1.234466 0.082158 0)
(1.178236 0.137373 0)
(1.122099 0.192427 0)
(1.066712 0.246906 0)
(1.012995 0.300272 0)
(0.961191 0.352365 0)
(0.552083 0.750000 0)
(0.604386 0.700000 0)
(0.656908 0.650000 0)
(0.911146 0.403117 0)
(0.862699 0.452420 0)
(0.815789 0.500000 0)
(0.762610 0.550000 0)
(0.709649 0.600000 0)
(1.550003 -0.288468 0)
(1.500000 -0.342105 0)
(1.447726 -0.395219 0)
(1.395064 -0.447878 0)
(1.342105 -0.500000 0)
(1.287822 -0.549996 0)
(1.233772 -0.600000 0)
(1.179934 -0.650000 0)
(1.126316 -0.700000 0)
(1.072917 -0.750000 0)
(1.500000 -0.236842 0)
(1.448333 -0.184903 0)
(1.396724 -0.132685 0)
(1.344463 -0.079948 0)
(1.290719 -0.026426 0)
(1.234512 0.028228 0)
(1.177472 0.083903 0)
(1.120678 0.139841 0)
(1.064562 0.195247 0)
(1.010006 0.249568 0)
(0.957327 0.302641 0)
(0.500000 0.750000 0)
(0.906420 0.354351 0)
(0.552193 0.700000 0)
(0.604605 0.650000 0)
(0.657237 0.600000 0)
(0.857092 0.404669 0)
(0.809265 0.453370 0)
(0.763158 0.500000 0)
(0.710088 0.550000 0)
(1.500000 -0.289474 0)
(1.447902 -0.342766 0)
(1.395426 -0.395733 0)
(1.342538 -0.448150 0)
(1.289474 -0.500000 0)
(1.235307 -0.550000 0)
(1.181360 -0.600000 0)
(1.127632 -0.650000 0)
(1.074123 -0.700000 0)
(1.020833 -0.750000 0)
(1.448209 -0.237614 0)
(1.396549 -0.185644 0)
(1.344361 -0.133292 0)
(1.290716 -0.080258 0)
(1.234887 -0.026112 0)
(1.176734 0.029682 0)
(1.119052 0.086588 0)
(1.062393 0.143138 0)
(1.007096 0.198542 0)
(0.953666 0.252591 0)
(0.901987 0.305256 0)
(0.447917 0.750000 0)
(0.500000 0.700000 0)
(0.851821 0.356593 0)
(0.552303 0.650000 0)
(0.604825 0.600000 0)
(0.657566 0.550000 0)
(0.802968 0.406515 0)
(0.755695 0.454521 0)
(0.710526 0.500000 0)
(1.448065 -0.290235 0)
(1.395779 -0.343482 0)
(1.343007 -0.396266 0)
(1.289943 -0.448426 0)
(1.236842 -0.500000 0)
(1.182785 -0.550000 0)
(1.128947 -0.600000 0)
(1.075329 -0.650000 0)
(1.021930 -0.700000 0)
(0.968750 -0.750000 0)
(1.396339 -0.238444 0)
(1.344263 -0.186450 0)
(1.290902 -0.133955 0)
(1.235198 -0.080544 0)
(1.176749 -0.025412 0)
(1.117424 0.032216 0)
(1.060005 0.090434 0)
(1.004189 0.147199 0)
(0.950249 0.202239 0)
(0.897960 0.255813 0)
(0.847100 0.308087 0)
(0.395833 0.750000 0)
(0.447807 0.700000 0)
(0.500000 0.650000 0)
(0.797305 0.359181 0)
(0.552412 0.600000 0)
(0.605044 0.550000 0)
(0.657895 0.500000 0)
(0.748515 0.408805 0)
(0.701988 0.455840 0)
(1.396080 -0.291057 0)
(1.343476 -0.344243 0)
(1.290432 -0.396814 0)
(1.237282 -0.448694 0)
(1.184211 -0.500000 0)
(1.130263 -0.550000 0)
(1.076535 -0.600000 0)
(1.023026 -0.650000 0)
(0.969737 -0.700000 0)
(0.916667 -0.750000 0)
(1.344108 -0.239351 0)
(1.291144 -0.187349 0)
(1.236036 -0.134741 0)
(1.177477 -0.080880 0)
(1.115861 -0.023926 0)
(1.057138 0.036611 0)
(1.001222 0.095345 0)
(0.946971 0.151615 0)
(0.894309 0.206069 0)
(0.842976 0.259152 0)
(0.792509 0.311206 0)
(0.343750 0.750000 0)
(0.395614 0.700000 0)
(0.447697 0.650000 0)
(0.500000 0.600000 0)
(0.742447 0.362366 0)
(0.552522 0.550000 0)
(0.605263 0.500000 0)
(0.648423 0.457055 0)
(0.693462 0.411719 0)
(1.343848 -0.291949 0)
(1.290892 -0.345031 0)
(1.237704 -0.397354 0)
(1.184585 -0.448933 0)
(1.131579 -0.500000 0)
(1.077741 -0.550000 0)
(1.024123 -0.600000 0)
(0.970724 -0.650000 0)
(0.917544 -0.700000 0)
(0.864583 -0.750000 0)
(1.291295 -0.240358 0)
(1.237025 -0.188399 0)
(1.179637 -0.135859 0)
(1.116509 -0.081614 0)
(1.053179 -0.019608 0)
(0.997561 0.042828 0)
(0.943636 0.100697 0)
(0.890901 0.156081 0)
(0.839340 0.209869 0)
(0.788545 0.262623 0)
(0.737732 0.314837 0)
(0.291667 0.750000 0)
(0.343421 0.700000 0)
(0.395395 0.650000 0)
(0.447588 0.600000 0)
(0.500000 0.550000 0)
(0.686151 0.366796 0)
(0.552632 0.500000 0)
(0.595414 0.457816 0)
(0.638334 0.414687 0)
(1.291258 -0.292949 0)
(1.237991 -0.345804 0)
(1.184895 -0.397850 0)
(1.131894 -0.449106 0)
(1.078947 -0.500000 0)
(1.025219 -0.550000 0)
(0.971711 -0.600000 0)
(0.918421 -0.650000 0)
(0.865351 -0.700000 0)
(0.812500 -0.750000 0)
(1.237764 -0.241440 0)
(1.182051 -0.189759 0)
(1.121821 -0.137903 0)
(1.044505 -0.083150 0)
(0.992576 -0.010443 0)
(0.939944 0.049547 0)
(0.887628 0.105900 0)
(0.836090 0.160332 0)
(0.785252 0.213584 0)
(0.239583 0.750000 0)
(0.734330 0.266346 0)
(0.682034 0.319384 0)
(0.291228 0.700000 0)
(0.343092 0.650000 0)
(0.395175 0.600000 0)
(0.447478 0.550000 0)
(0.500000 0.500000 0)
(0.625000 0.375000 0)
(0.542919 0.458150 0)
(0.585073 0.416072 0)
(1.237968 -0.293835 0)
(1.185004 -0.346603 0)
(1.132109 -0.398249 0)
(1.079260 -0.449176 0)
(1.026316 -0.500000 0)
(0.972697 -0.550000 0)
(0.919298 -0.600000 0)
(0.866118 -0.650000 0)
(0.813158 -0.700000 0)
(0.760417 -0.750000 0)
(1.183776 -0.242670 0)
(1.126836 -0.191668 0)
(1.065604 -0.142778 0)
(1.011199 -0.114925 0)
(0.984744 -0.062187 0)
(0.935476 -0.001385 0)
(0.884337 0.055643 0)
(0.833152 0.110612 0)
(0.782441 0.164258 0)
(0.731755 0.217277 0)
(-0.750000 0.750000 0)
(0.187500 0.750000 0)
(0.239035 0.700000 0)
(0.679889 0.270478 0)
(0.625000 0.325000 0)
(0.290789 0.650000 0)
(0.342763 0.600000 0)
(0.394956 0.550000 0)
(0.447368 0.500000 0)
(0.490667 0.458272 0)
(0.573921 0.375000 0)
(0.533002 0.416473 0)
(1.184653 -0.294863 0)
(1.131970 -0.347150 0)
(1.079405 -0.398336 0)
(1.026709 -0.449056 0)
(0.973684 -0.500000 0)
(0.920175 -0.550000 0)
(0.866886 -0.600000 0)
(0.813816 -0.650000 0)
(0.760965 -0.700000 0)
(0.708333 -0.750000 0)
(1.129797 -0.244038 0)
(1.073012 -0.194294 0)
(1.017165 -0.149745 0)
(0.974674 -0.106971 0)
(0.930421 -0.051254 0)
(0.880921 0.005574 0)
(0.830475 0.060788 0)
(0.779920 0.114798 0)
(0.729681 0.167900 0)
(0.678445 0.221064 0)
(-0.697917 0.750000 0)
(-0.750000 0.698276 0)
(0.135417 0.750000 0)
(0.186842 0.700000 0)
(0.238487 0.650000 0)
(0.625000 0.275000 0)
(0.573344 0.324436 0)
(0.290351 0.600000 0)
(0.342434 0.550000 0)
(0.394737 0.500000 0)
(0.438507 0.458315 0)
(0.481255 0.416603 0)
(0.522842 0.375000 0)
(1.131335 -0.295791 0)
(1.079201 -0.347450 0)
(1.026942 -0.398182 0)
(0.974295 -0.448808 0)
(0.921053 -0.500000 0)
(0.867654 -0.550000 0)
(0.814474 -0.600000 0)
(0.761513 -0.650000 0)
(0.708772 -0.700000 0)
(0.656250 -0.750000 0)
(1.076590 -0.245389 0)
(1.021734 -0.196599 0)
(0.971161 -0.150135 0)
(0.925670 -0.099221 0)
(0.877516 -0.043962 0)
(0.827929 0.011044 0)
(0.778155 0.064985 0)
(0.727977 0.118336 0)
(0.677344 0.171429 0)
(0.625000 0.225000 0)
(-0.645833 0.750000 0)
(-0.698300 0.698591 0)
(-0.750000 0.646552 0)
(0.083333 0.750000 0)
(0.134649 0.700000 0)
(0.186184 0.650000 0)
(0.237939 0.600000 0)
(0.572942 0.273938 0)
(0.521522 0.323811 0)
(0.289912 0.550000 0)
(0.342105 0.500000 0)
(0.386381 0.458330 0)
(0.429611 0.416647 0)
(0.471763 0.375000 0)
(1.078426 -0.296503 0)
(1.026808 -0.347349 0)
(0.974745 -0.397724 0)
(0.922017 -0.448400 0)
(0.868421 -0.500000 0)
(0.815132 -0.550000 0)
(0.762061 -0.600000 0)
(0.709211 -0.650000 0)
(0.656579 -0.700000 0)
(0.604167 -0.750000 0)
(1.024548 -0.246186 0)
(0.972078 -0.196734 0)
(0.923085 -0.146519 0)
(0.874972 -0.093180 0)
(0.825609 -0.038502 0)
(0.776225 0.015355 0)
(0.726596 0.068639 0)
(0.676461 0.121679 0)
(0.625000 0.175000 0)
(0.572934 0.223587 0)
(-0.593750 0.750000 0)
(-0.646595 0.698907 0)
(-0.698671 0.647165 0)
(-0.750000 0.594828 0)
(0.031250 0.750000 0)
(0.082456 0.700000 0)
(0.133882 0.650000 0)
(0.185526 0.600000 0)
(0.237390 0.550000 0)
(0.520510 0.272727 0)
(0.469427 0.323068 0)
(0.289474 0.500000 0)
(0.334275 0.458335 0)
(0.378002 0.416662 0)
(0.420684 0.375000 0)
(-0.750000 -0.750000 0)
(1.026092 -0.296603 0)
(0.974844 -0.346766 0)
(0.922817 -0.396939 0)
(0.869883 -0.447812 0)
(0.815789 -0.500000 0)
(0.762610 -0.550000 0)
(0.709649 -0.600000 0)
(0.656908 -0.650000 0)
(0.604386 -0.700000 0)
(0.552083 -0.750000 0)
(0.973474 -0.245805 0)
(0.922573 -0.194729 0)
(0.873356 -0.142200 0)
(0.824150 -0.088256 0)
(0.774723 -0.034354 0)
(0.725424 0.018888 0)
(0.675744 0.071857 0)
(0.625000 0.125000 0)
(0.573404 0.173560 0)
(0.520428 0.221737 0)
(-0.541667 0.750000 0)
(-0.594864 0.699210 0)
(-0.647339 0.647787 0)
(-0.699023 0.595709 0)
(-0.750000 0.543103 0)
(-0.020833 0.750000 0)
(0.030263 0.700000 0)
(0.081579 0.650000 0)
(0.133114 0.600000 0)
(0.184868 0.550000 0)
(0.236842 0.500000 0)
(0.467493 0.271212 0)
(0.416950 0.322177 0)
(0.282198 0.458336 0)
(0.326414 0.416667 0)
(0.369605 0.375000 0)
(-0.697917 -0.750000 0)
(-0.750000 -0.698276 0)
(0.974441 -0.296028 0)
(0.923275 -0.345673 0)
(0.871155 -0.395810 0)
(0.500000 -0.750000 0)
(0.817923 -0.447007 0)
(0.763158 -0.500000 0)
(0.710088 -0.550000 0)
(0.657237 -0.600000 0)
(0.604605 -0.650000 0)
(0.552193 -0.700000 0)
(0.922930 -0.244241 0)
(0.872718 -0.191649 0)
(0.823208 -0.138092 0)
(0.773652 -0.084161 0)
(0.724498 -0.030935 0)
(0.466719 0.219070 0)
(0.675162 0.021989 0)
(0.625000 0.075000 0)
(0.574079 0.124061 0)
(0.521571 0.171470 0)
(-0.489583 0.750000 0)
(-0.543081 0.699481 0)
(-0.595965 0.648393 0)
(-0.648052 0.596612 0)
(-0.699343 0.544202 0)
(-0.750000 0.491379 0)
(-0.072917 0.750000 0)
(-0.021930 0.700000 0)
(0.029276 0.650000 0)
(0.080702 0.600000 0)
(0.132346 0.550000 0)
(0.184211 0.500000 0)
(0.230187 0.458336 0)
(0.413914 0.269506 0)
(0.363738 0.320996 0)
(0.274857 0.416668 0)
(0.318526 0.375000 0)
(0.357480 0.215531 0)
(-0.645833 -0.750000 0)
(-0.698332 -0.698616 0)
(-0.750000 -0.646552 0)
(0.447917 -0.750000 0)
(0.923293 -0.294699 0)
(0.872054 -0.344086 0)
(0.819795 -0.394293 0)
(0.500000 -0.700000 0)
(0.766216 -0.445890 0)
(0.710526 -0.500000 0)
(0.657566 -0.550000 0)
(0.604825 -0.600000 0)
(0.552303 -0.650000 0)
(0.872605 -0.241835 0)
(0.822730 -0.188266 0)
(0.773201 -0.134405 0)
(0.723870 -0.080903 0)
(0.674712 -0.027932 0)
(0.411887 0.216338 0)
(0.469067 0.167231 0)
(0.625000 0.025000 0)
(0.574468 0.075003 0)
(0.523523 0.122599 0)
(0.370722 0.093663 0)
(0.388184 0.122800 0)
(0.355836 0.166250 0)
(-0.437500 0.750000 0)
(-0.491218 0.699702 0)
(-0.544496 0.648949 0)
(-0.597051 0.597525 0)
(-0.750000 0.439655 0)
(-0.648702 0.545337 0)
(-0.699608 0.492621 0)
(-0.125000 0.750000 0)
(-0.074123 0.700000 0)
(-0.023026 0.650000 0)
(0.028289 0.600000 0)
(0.079825 0.550000 0)
(0.131579 0.500000 0)
(0.178322 0.458336 0)
(0.223387 0.416669 0)
(0.359515 0.267541 0)
(0.308811 0.319384 0)
(0.267447 0.375000 0)
(0.303915 0.212083 0)
(-0.593750 -0.750000 0)
(-0.646646 -0.698945 0)
(-0.698734 -0.647218 0)
(-0.750000 -0.594828 0)
(0.395833 -0.750000 0)
(0.447807 -0.700000 0)
(0.872505 -0.292720 0)
(0.821188 -0.342012 0)
(0.768857 -0.392255 0)
(0.500000 -0.650000 0)
(0.714938 -0.444254 0)
(0.657895 -0.500000 0)
(0.605044 -0.550000 0)
(0.552412 -0.600000 0)
(0.822448 -0.238954 0)
(0.772875 -0.184890 0)
(0.723514 -0.131099 0)
(0.674401 -0.077932 0)
(0.625000 -0.025000 0)
(0.409419 0.157832 0)
(0.474404 0.119472 0)
(0.574285 0.026004 0)
(0.524630 0.074957 0)
(0.399548 0.104222 0)
(0.378103 0.072258 0)
(0.355395 0.084326 0)
(0.352604 0.120531 0)
(0.307156 0.166321 0)
(-0.385417 0.750000 0)
(-0.439259 0.699857 0)
(-0.492865 0.649403 0)
(-0.545952 0.598408 0)
(-0.598084 0.546538 0)
(-0.750000 0.387931 0)
(-0.699818 0.440967 0)
(-0.649227 0.493890 0)
(-0.177083 0.750000 0)
(-0.126316 0.700000 0)
(-0.075329 0.650000 0)
(-0.024123 0.600000 0)
(0.027303 0.550000 0)
(0.078947 0.500000 0)
(0.126703 0.458336 0)
(0.172170 0.416669 0)
(0.216368 0.375000 0)
(0.302856 0.263596 0)
(0.252815 0.319334 0)
(0.252609 0.201130 0)
(-0.541667 -0.750000 0)
(-0.594914 -0.699244 0)
(-0.647430 -0.647858 0)
(-0.699104 -0.595779 0)
(-0.750000 -0.543103 0)
(0.343750 -0.750000 0)
(0.395614 -0.700000 0)
(0.447697 -0.650000 0)
(0.822030 -0.290215 0)
(0.770779 -0.339371 0)
(0.718623 -0.389361 0)
(0.500000 -0.600000 0)
(0.664375 -0.441766 0)
(0.605263 -0.500000 0)
(0.552522 -0.550000 0)
(0.772543 -0.235799 0)
(0.723276 -0.181563 0)
(0.674206 -0.128049 0)
(0.625000 -0.075000 0)
(0.573774 -0.023319 0)
(0.430149 0.112879 0)
(0.477001 0.074849 0)
(0.523980 0.027385 0)
(0.402124 0.074524 0)
(0.380450 0.055515 0)
(0.358211 0.067752 0)
(0.337980 0.092203 0)
(0.262550 0.160254 0)
(0.308498 0.126228 0)
(-0.333333 0.750000 0)
(-0.387203 0.699948 0)
(-0.441026 0.649718 0)
(-0.494607 0.599150 0)
(-0.547501 0.547858 0)
(-0.750000 0.336207 0)
(-0.598927 0.495280 0)
(-0.699942 0.389209 0)
(-0.649639 0.442291 0)
(-0.229167 0.750000 0)
(-0.178509 0.700000 0)
(-0.127632 0.650000 0)
(-0.076535 0.600000 0)
(-0.025219 0.550000 0)
(0.026316 0.500000 0)
(0.075391 0.458335 0)
(0.121491 0.416668 0)
(0.165467 0.375000 0)
(0.199341 0.324454 0)
(0.234113 0.254505 0)
(0.207884 0.181792 0)
(-0.489583 -0.750000 0)
(-0.543106 -0.699496 0)
(-0.596043 -0.648447 0)
(-0.648157 -0.596696 0)
(-0.699413 -0.544264 0)
(-0.750000 -0.491379 0)
(0.291667 -0.750000 0)
(0.343421 -0.700000 0)
(0.395395 -0.650000 0)
(0.447588 -0.600000 0)
(0.771943 -0.287258 0)
(0.721058 -0.335927 0)
(0.669784 -0.384749 0)
(0.500000 -0.550000 0)
(0.614211 -0.438962 0)
(0.552632 -0.500000 0)
(0.722972 -0.232375 0)
(0.674058 -0.178317 0)
(0.625000 -0.125000 0)
(0.573294 -0.073020 0)
(0.522460 -0.021199 0)
(0.434759 0.074764 0)
(0.474832 0.030001 0)
(0.397990 0.046685 0)
(0.365129 0.047075 0)
(0.335486 0.064974 0)
(0.307076 0.092705 0)
(0.222658 0.149260 0)
(0.268839 0.124283 0)
(-0.281250 0.750000 0)
(-0.335069 0.699988 0)
(-0.388987 0.649895 0)
(-0.442876 0.599627 0)
(-0.496669 0.549097 0)
(-0.548901 0.497016 0)
(-0.750000 0.284483 0)
(-0.699995 0.337367 0)
(-0.599527 0.443710 0)
(-0.649876 0.390485 0)
(-0.230702 0.700000 0)
(-0.179934 0.650000 0)
(-0.128947 0.600000 0)
(-0.077741 0.550000 0)
(-0.026316 0.500000 0)
(0.024340 0.458334 0)
(0.071547 0.416668 0)
(0.115455 0.375000 0)
(0.150383 0.329817 0)
(0.178147 0.275713 0)
(0.184339 0.212783 0)
(0.171119 0.161392 0)
(-0.437500 -0.750000 0)
(-0.491207 -0.699690 0)
(-0.544528 -0.648963 0)
(-0.597130 -0.597578 0)
(-0.648788 -0.545405 0)
(-0.699641 -0.492647 0)
(-0.750000 -0.439655 0)
(0.239583 -0.750000 0)
(0.291228 -0.700000 0)
(0.343092 -0.650000 0)
(0.395175 -0.600000 0)
(0.447478 -0.550000 0)
(0.722370 -0.283768 0)
(0.672424 -0.331179 0)
(0.625000 -0.375000 0)
(0.500000 -0.500000 0)
(0.563084 -0.437785 0)
(0.673854 -0.228800 0)
(0.625000 -0.175000 0)
(0.572996 -0.122945 0)
(0.521392 -0.070820 0)
(0.470335 -0.017797 0)
(0.430626 0.036321 0)
(0.380710 0.024120 0)
(0.340611 0.038991 0)
(0.307380 0.063083 0)
(0.273255 0.091545 0)
(0.187800 0.136395 0)
(0.233103 0.118010 0)
(-0.282893 0.699999 0)
(-0.750000 0.232759 0)
(-0.336803 0.649974 0)
(-0.390810 0.599866 0)
(-0.444959 0.549695 0)
(-0.500000 0.500000 0)
(-0.549619 0.445374 0)
(-0.700009 0.285479 0)
(-0.649981 0.338524 0)
(-0.599837 0.391803 0)
(-0.232237 0.650000 0)
(-0.181360 0.600000 0)
(-0.130263 0.550000 0)
(-0.078947 0.500000 0)
(-0.026583 0.458332 0)
(0.022225 0.416667 0)
(0.067034 0.375000 0)
(0.104209 0.333262 0)
(0.132919 0.286761 0)
(0.150017 0.234727 0)
(0.149502 0.183819 0)
(0.139531 0.143287 0)
(0.187500 -0.750000 0)
(-0.385417 -0.750000 0)
(-0.439216 -0.699825 0)
(-0.492839 -0.649374 0)
(-0.545974 -0.598410 0)
(-0.598143 -0.546576 0)
(-0.649273 -0.493924 0)
(-0.699836 -0.440979 0)
(-0.750000 -0.387931 0)
(0.239035 -0.700000 0)
(0.290789 -0.650000 0)
(0.342763 -0.600000 0)
(0.394956 -0.550000 0)
(0.447368 -0.500000 0)
(0.673426 -0.279636 0)
(0.625000 -0.325000 0)
(0.573892 -0.375000 0)
(0.511358 -0.437556 0)
(0.625000 -0.225000 0)
(0.572929 -0.173014 0)
(0.520909 -0.120804 0)
(0.468970 -0.068349 0)
(0.412116 -0.010167 0)
(0.350292 0.009616 0)
(0.311209 0.033797 0)
(0.277045 0.060934 0)
(0.128728 0.119269 0)
(0.156474 0.124562 0)
(0.240895 0.087835 0)
(0.200831 0.110157 0)
(-0.284535 0.649997 0)
(-0.750000 0.181034 0)
(-0.700011 0.233575 0)
(-0.338544 0.599965 0)
(-0.392723 0.549898 0)
(-0.447368 0.500000 0)
(-0.500000 0.447368 0)
(-0.549874 0.393217 0)
(-0.650012 0.286474 0)
(-0.599968 0.339689 0)
(-0.750000 0.129310 0)
(-0.233772 0.600000 0)
(-0.182785 0.550000 0)
(-0.131579 0.500000 0)
(-0.077550 0.458328 0)
(-0.026813 0.416665 0)
(0.019830 0.375000 0)
(0.059702 0.335126 0)
(0.091470 0.293181 0)
(0.113648 0.248138 0)
(0.122993 0.201766 0)
(0.120289 0.159783 0)
(0.115612 0.136431 0)
(0.107434 0.114059 0)
(0.135417 -0.750000 0)
(0.186842 -0.700000 0)
(-0.333333 -0.750000 0)
(-0.387147 -0.699909 0)
(-0.440954 -0.649659 0)
(-0.494571 -0.599108 0)
(-0.547514 -0.547855 0)
(-0.598964 -0.495304 0)
(-0.649666 -0.442309 0)
(-0.699923 -0.389183 0)
(-0.750000 -0.336207 0)
(0.238487 -0.650000 0)
(0.290351 -0.600000 0)
(0.342434 -0.550000 0)
(0.394737 -0.500000 0)
(0.459516 -0.437511 0)
(0.625000 -0.275000 0)
(0.573532 -0.324298 0)
(0.522784 -0.375000 0)
(0.573005 -0.223249 0)
(0.520804 -0.170908 0)
(0.468981 -0.118704 0)
(0.059462 0.043940 0)
(0.416588 -0.067255 0)
(0.362357 -0.026148 0)
(0.316971 0.002541 0)
(0.280800 0.030758 0)
(0.104434 0.095372 0)
(0.246766 0.058357 0)
(0.122757 0.099101 0)
(0.143275 0.101253 0)
(0.171452 0.102976 0)
(0.210825 0.083241 0)
(0.059476 0.036119 0)
(-0.750000 -0.129310 0)
(-0.750000 -0.077586 0)
(-0.750000 0.077586 0)
(-0.286177 0.599995 0)
(-0.700011 0.181670 0)
(-0.650016 0.234392 0)
(-0.340309 0.549972 0)
(-0.394737 0.500000 0)
(-0.444967 0.451580 0)
(-0.500000 0.394737 0)
(-0.549971 0.340881 0)
(-0.600009 0.287470 0)
(-0.700011 0.129764 0)
(-0.235307 0.550000 0)
(-0.184211 0.500000 0)
(-0.128736 0.458315 0)
(-0.075930 0.416661 0)
(-0.026967 0.375000 0)
(0.016248 0.335779 0)
(0.051579 0.296697 0)
(0.077949 0.256278 0)
(0.093878 0.214626 0)
(0.054094 0.040180 0)
(0.049246 0.037138 0)
(0.098380 0.174130 0)
(0.097781 0.149300 0)
(0.089186 0.092015 0)
(0.093907 0.126751 0)
(0.090887 0.107418 0)
(0.052085 0.045821 0)
(0.056537 0.051486 0)
(0.060562 0.058191 0)
(0.065142 0.067232 0)
(0.083333 -0.750000 0)
(0.134649 -0.700000 0)
(0.186184 -0.650000 0)
(-0.750000 -0.181034 0)
(-0.750000 -0.232759 0)
(-0.281250 -0.750000 0)
(-0.335022 -0.699955 0)
(-0.388897 -0.649829 0)
(-0.750000 -0.284483 0)
(-0.442800 -0.599562 0)
(-0.496642 -0.549065 0)
(-0.548917 -0.497022 0)
(-0.599552 -0.443725 0)
(-0.649847 -0.390445 0)
(-0.699970 -0.337335 0)
(0.237939 -0.600000 0)
(0.289912 -0.550000 0)
(0.342105 -0.500000 0)
(0.407652 -0.437502 0)
(0.471677 -0.375000 0)
(0.573210 -0.273683 0)
(0.522024 -0.323503 0)
(0.520942 -0.221327 0)
(0.468733 -0.168611 0)
(0.417782 -0.116925 0)
(0.065126 0.050233 0)
(0.086652 0.079342 0)
(0.076486 0.070152 0)
(0.071085 0.058439 0)
(0.065105 0.032157 0)
(0.068066 0.039903 0)
(0.368149 -0.069539 0)
(0.322330 -0.032240 0)
(0.284348 -0.000479 0)
(0.250984 0.028877 0)
(0.100211 0.080841 0)
(0.116102 0.081118 0)
(0.218305 0.055732 0)
(0.134300 0.081344 0)
(0.156235 0.081467 0)
(0.183738 0.078995 0)
(0.052892 0.033555 0)
(0.047408 0.031732 0)
(0.058300 0.030000 0)
(0.042766 0.028609 0)
(0.039040 0.026565 0)
(0.036703 0.027874 0)
(-0.750000 0.025862 0)
(-0.750000 -0.025862 0)
(-0.700010 -0.129762 0)
(-0.700010 -0.077858 0)
(-0.700011 0.077858 0)
(-0.287822 0.549996 0)
(-0.650016 0.182305 0)
(-0.600015 0.235208 0)
(-0.342105 0.500000 0)
(-0.390490 0.454992 0)
(-0.442040 0.403922 0)
(-0.500000 0.342105 0)
(-0.550003 0.288468 0)
(-0.650016 0.130218 0)
(-0.236842 0.500000 0)
(-0.180263 0.458276 0)
(-0.125523 0.416647 0)
(-0.073872 0.375000 0)
(-0.026793 0.335262 0)
(0.012414 0.297879 0)
(0.042971 0.260783 0)
(0.064040 0.223107 0)
(0.074709 0.185522 0)
(0.047252 0.041280 0)
(0.044587 0.036442 0)
(0.042679 0.032587 0)
(0.038896 0.031034 0)
(0.035773 0.030014 0)
(0.076958 0.160421 0)
(0.077754 0.138369 0)
(0.064824 0.077846 0)
(0.074981 0.084411 0)
(0.074514 0.099417 0)
(0.075995 0.117439 0)
(0.045640 0.046710 0)
(0.049334 0.051601 0)
(0.052622 0.058341 0)
(0.056864 0.063945 0)
(0.055475 0.071033 0)
(0.055092 0.080337 0)
(0.031250 -0.750000 0)
(0.082456 -0.700000 0)
(0.133882 -0.650000 0)
(0.185526 -0.600000 0)
(-0.700008 -0.181665 0)
(-0.072917 -0.750000 0)
(-0.125000 -0.750000 0)
(-0.177083 -0.750000 0)
(-0.700003 -0.233565 0)
(-0.229167 -0.750000 0)
(-0.282864 -0.699979 0)
(-0.336724 -0.649918 0)
(-0.390719 -0.599797 0)
(-0.699993 -0.285458 0)
(-0.444910 -0.549652 0)
(-0.500000 -0.500000 0)
(-0.549633 -0.445382 0)
(-0.599808 -0.391763 0)
(-0.649939 -0.338470 0)
(0.237390 -0.550000 0)
(0.289474 -0.500000 0)
(0.355784 -0.437500 0)
(0.420569 -0.375000 0)
(0.470441 -0.322515 0)
(0.521354 -0.272205 0)
(0.468861 -0.219052 0)
(0.417586 -0.166008 0)
(0.369091 -0.115257 0)
(0.062834 0.025851 0)
(0.067956 0.026914 0)
(0.074745 0.047944 0)
(0.091118 0.067686 0)
(0.083245 0.056404 0)
(0.072870 0.030774 0)
(0.078240 0.036619 0)
(0.324779 -0.070782 0)
(0.286481 -0.033637 0)
(0.253522 -0.001285 0)
(0.223139 0.027700 0)
(0.107111 0.066356 0)
(0.125098 0.064289 0)
(0.192693 0.053568 0)
(0.144758 0.062201 0)
(0.166281 0.059643 0)
(0.051834 0.028635 0)
(0.046891 0.026325 0)
(0.056736 0.024874 0)
(0.061150 0.021404 0)
(0.041780 0.024453 0)
(0.038165 0.022846 0)
(0.035796 0.024847 0)
(0.033931 0.026936 0)
(-0.700011 0.025953 0)
(-0.700011 -0.025953 0)
(-0.650014 -0.130215 0)
(-0.650015 -0.078129 0)
(-0.650016 0.078131 0)
(-0.289474 0.500000 0)
(-0.600015 0.182940 0)
(-0.550008 0.236025 0)
(-0.337005 0.456990 0)
(-0.385044 0.411699 0)
(-0.439035 0.356416 0)
(-0.500000 0.289474 0)
(-0.600015 0.130671 0)
(-0.232139 0.458165 0)
(-0.175958 0.416609 0)
(-0.121321 0.375000 0)
(-0.069932 0.333515 0)
(-0.026461 0.296800 0)
(0.008409 0.262296 0)
(0.034125 0.227969 0)
(0.050251 0.193583 0)
(0.055479 0.169372 0)