/*--------------------------------*- C++ -*----------------------------------*\
  =========                 |
  \\      /  F ield         | OpenFOAM: The Open Source CFD Toolbox
   \\    /   O peration     | Website:  https://openfoam.org
    \\  /    A nd           | Version:  8
     \\/     M anipulation  |
\*---------------------------------------------------------------------------*/
FoamFile
{
    version     2.0;
    format      ascii;
    class       polyBoundaryMesh;
    location    "constant/polyMesh";
    object      boundary;
}
// * * * * * * * * * * * * * * * * * * * * * * * * * * * * * * * * * * * * * //

6
(
    top
    {
        type            symmetryPlane;
        inGroups        List<word> 1(symmetryPlane);
        nFaces          2396;
        startFace       5719875;
    }
    bottom
    {
        type            symmetryPlane;
        inGroups        List<word> 1(symmetryPlane);
        nFaces          2390;
        startFace       5722271;
    }
    inlet
    {
        type            patch;
        nFaces          1196;
        startFace       5724661;
    }
    outlet
    {
        type            patch;
        nFaces          1196;
        startFace       5725857;
    }
    deck
    {
        type            wall;
        inGroups        List<word> 1(wall);
        nFaces          264;
        startFace       5727053;
    }
    frontAndBack
    {
        type            empty;
        inGroups        List<word> 1(empty);
        nFaces          5723596;
        startFace       5727317;
    }
)

// ************************************************************************* //
